_rank4
     RDKit          3D

 27 29  0  0  0  0  0  0  0  0999 V2000
    8.6489    3.5204   -5.6976 C   0  0  0  0  0  0  0  0  0  0  0  0
    8.1503    4.9306   -5.6374 C   0  0  0  0  0  0  0  0  0  0  0  0
    8.7258    5.8837   -6.4687 C   0  0  0  0  0  0  0  0  0  0  0  0
    8.2669    7.1794   -6.4124 C   0  0  0  0  0  0  0  0  0  0  0  0
    7.2518    7.4606   -5.5251 C   0  0  0  0  0  0  0  0  0  0  0  0
    6.6902    6.4826   -4.6999 C   0  0  0  0  0  0  0  0  0  0  0  0
    7.1598    5.2280   -4.7785 N   0  0  0  0  0  0  0  0  0  0  0  0
    5.6376    6.6371   -3.7411 N   0  0  0  0  0  0  0  0  0  0  0  0
    4.6034    7.6540   -3.7361 C   0  0  2  0  0  0  0  0  0  0  0  0
    3.7370    7.4617   -4.9853 C   0  0  0  0  0  0  0  0  0  0  0  0
    2.4244    6.8288   -4.6509 C   0  0  1  0  0  0  0  0  0  0  0  0
    1.5368    7.8169   -4.2844 F   0  0  0  0  0  0  0  0  0  0  0  0
    1.9024    6.1785   -5.7478 F   0  0  0  0  0  0  0  0  0  0  0  0
    5.1543    9.0236   -3.7886 C   0  0  0  0  0  0  0  0  0  0  0  0
    4.5758    9.9315   -2.8664 N   0  0  0  0  0  0  0  0  0  0  0  0
    5.4511   10.7835   -2.1222 C   0  0  0  0  0  0  0  0  0  0  0  0
    6.6525   11.2424   -2.6359 C   0  0  0  0  0  0  0  0  0  0  0  0
    7.4895   12.0639   -1.9092 C   0  0  0  0  0  0  0  0  0  0  0  0
    8.7877   12.5675   -2.4479 C   0  0  0  0  0  0  0  0  0  0  0  0
    7.0706   12.4122   -0.6315 C   0  0  0  0  0  0  0  0  0  0  0  0
    8.1341   13.4565    0.2927 Cl  0  0  0  0  0  0  0  0  0  0  0  0
    5.8762   11.9556   -0.1218 C   0  0  0  0  0  0  0  0  0  0  0  0
    5.0455   11.1343   -0.8560 C   0  0  0  0  0  0  0  0  0  0  0  0
    3.8689   10.6996   -0.3211 F   0  0  0  0  0  0  0  0  0  0  0  0
    6.0740    9.5383   -4.5269 N   0  0  0  0  0  0  0  0  0  0  0  0
    6.8465    8.8735   -5.5490 C   0  0  0  0  0  0  0  0  0  0  0  0
    7.2230    9.4979   -6.5462 O   0  0  0  0  0  0  0  0  0  0  0  0
  1  2  1  6
  2  3  2  0
  3  4  1  0
  4  5  2  0
  5  6  1  0
  6  7  2  0
  6  8  1  0
  9  8  1  6
  9 10  1  0
 10 11  1  1
 11 12  1  6
 11 13  1  0
  9 14  1  0
 14 15  1  0
 15 16  1  0
 16 17  2  0
 17 18  1  0
 19 18  1  1
 18 20  2  0
 20 21  1  0
 20 22  1  0
 22 23  2  0
 23 24  1  0
 14 25  2  0
 25 26  1  0
 26 27  2  0
  7  2  1  0
 23 16  1  0
 26  5  1  0
M  END
$$$$
