_rank5
     RDKit          3D

 27 29  0  0  0  0  0  0  0  0999 V2000
   11.5862   12.3678   -4.4762 C   0  0  0  0  0  0  0  0  0  0  0  0
   10.6720   11.1943   -4.3089 C   0  0  0  0  0  0  0  0  0  0  0  0
   11.2143    9.9151   -4.2990 C   0  0  0  0  0  0  0  0  0  0  0  0
   10.3732    8.8374   -4.1454 C   0  0  0  0  0  0  0  0  0  0  0  0
    9.0265    9.0913   -4.0087 C   0  0  0  0  0  0  0  0  0  0  0  0
    8.5069   10.3885   -4.0220 C   0  0  0  0  0  0  0  0  0  0  0  0
    9.3534   11.4186   -4.1736 N   0  0  0  0  0  0  0  0  0  0  0  0
    7.1388   10.7911   -3.8899 N   0  0  0  0  0  0  0  0  0  0  0  0
    6.0705   10.0541   -3.2426 C   0  0  2  0  0  0  0  0  0  0  0  0
    6.4084    9.9301   -1.7531 C   0  0  0  0  0  0  0  0  0  0  0  0
    5.8797   11.0900   -0.9718 C   0  0  1  0  0  0  0  0  0  0  0  0
    4.5050   11.0963   -1.0638 F   0  0  0  0  0  0  0  0  0  0  0  0
    6.2129   10.9739    0.3602 F   0  0  0  0  0  0  0  0  0  0  0  0
    5.9219    8.6846   -3.7761 C   0  0  0  0  0  0  0  0  0  0  0  0
    4.5873    8.2998   -4.0595 N   0  0  0  0  0  0  0  0  0  0  0  0
    4.3789    7.2051   -4.9561 C   0  0  0  0  0  0  0  0  0  0  0  0
    4.6066    5.8901   -4.5860 C   0  0  0  0  0  0  0  0  0  0  0  0
    4.4024    4.8416   -5.4592 C   0  0  0  0  0  0  0  0  0  0  0  0
    4.6429    3.4186   -5.0764 C   0  0  0  0  0  0  0  0  0  0  0  0
    3.9555    5.1657   -6.7337 C   0  0  0  0  0  0  0  0  0  0  0  0
    3.6958    3.8333   -7.8439 Cl  0  0  0  0  0  0  0  0  0  0  0  0
    3.7294    6.4732   -7.1005 C   0  0  0  0  0  0  0  0  0  0  0  0
    3.9364    7.5155   -6.2205 C   0  0  0  0  0  0  0  0  0  0  0  0
    3.7027    8.7993   -6.6161 F   0  0  0  0  0  0  0  0  0  0  0  0
    6.7968    7.7765   -4.0325 N   0  0  0  0  0  0  0  0  0  0  0  0
    8.2265    7.8675   -3.8556 C   0  0  0  0  0  0  0  0  0  0  0  0
    8.8786    6.8637   -3.5505 O   0  0  0  0  0  0  0  0  0  0  0  0
  1  2  1  6
  2  3  2  0
  3  4  1  0
  4  5  2  0
  5  6  1  0
  6  7  2  0
  6  8  1  0
  9  8  1  6
  9 10  1  0
 10 11  1  1
 11 12  1  1
 11 13  1  0
  9 14  1  0
 14 15  1  0
 15 16  1  0
 16 17  2  0
 17 18  1  0
 19 18  1  1
 18 20  2  0
 20 21  1  0
 20 22  1  0
 22 23  2  0
 23 24  1  0
 14 25  2  0
 25 26  1  0
 26 27  2  0
  7  2  1  0
 23 16  1  0
 26  5  1  0
M  END
$$$$
