_rank6
     RDKit          3D

 27 29  0  0  0  0  0  0  0  0999 V2000
   13.3860  -11.0811  -11.3918 C   0  0  0  0  0  0  0  0  0  0  0  0
   12.4911   -9.8842  -11.4785 C   0  0  0  0  0  0  0  0  0  0  0  0
   12.5461   -8.9286  -10.4712 C   0  0  0  0  0  0  0  0  0  0  0  0
   11.7231   -7.8293  -10.5518 C   0  0  0  0  0  0  0  0  0  0  0  0
   10.8823   -7.7379  -11.6388 C   0  0  0  0  0  0  0  0  0  0  0  0
   10.8469   -8.7137  -12.6385 C   0  0  0  0  0  0  0  0  0  0  0  0
   11.6620   -9.7741  -12.5310 N   0  0  0  0  0  0  0  0  0  0  0  0
   10.0283   -8.7420  -13.8134 N   0  0  0  0  0  0  0  0  0  0  0  0
    9.4349   -7.6057  -14.4917 C   0  0  2  0  0  0  0  0  0  0  0  0
   10.5672   -6.7267  -15.0334 C   0  0  0  0  0  0  0  0  0  0  0  0
   10.1237   -5.9274  -16.2165 C   0  0  1  0  0  0  0  0  0  0  0  0
    9.1151   -5.0755  -15.8226 F   0  0  0  0  0  0  0  0  0  0  0  0
   11.1591   -5.1592  -16.7026 F   0  0  0  0  0  0  0  0  0  0  0  0
    8.6204   -6.7677  -13.5882 C   0  0  0  0  0  0  0  0  0  0  0  0
    7.3544   -6.3947  -14.1055 N   0  0  0  0  0  0  0  0  0  0  0  0
    6.3780   -5.8860  -13.1924 C   0  0  0  0  0  0  0  0  0  0  0  0
    6.5779   -4.7252  -12.4642 C   0  0  0  0  0  0  0  0  0  0  0  0
    5.6292   -4.2435  -11.5858 C   0  0  0  0  0  0  0  0  0  0  0  0
    5.8287   -2.9939  -10.7934 C   0  0  0  0  0  0  0  0  0  0  0  0
    4.4576   -4.9794  -11.4639 C   0  0  0  0  0  0  0  0  0  0  0  0
    3.2513   -4.3675  -10.3476 Cl  0  0  0  0  0  0  0  0  0  0  0  0
    4.2598   -6.1332  -12.1883 C   0  0  0  0  0  0  0  0  0  0  0  0
    5.2143   -6.6074  -13.0644 C   0  0  0  0  0  0  0  0  0  0  0  0
    4.9867   -7.7538  -13.7667 F   0  0  0  0  0  0  0  0  0  0  0  0
    8.8593   -6.3173  -12.4067 N   0  0  0  0  0  0  0  0  0  0  0  0
   10.0492   -6.5268  -11.6170 C   0  0  0  0  0  0  0  0  0  0  0  0
   10.4428   -5.6478  -10.8435 O   0  0  0  0  0  0  0  0  0  0  0  0
  1  2  1  6
  2  3  2  0
  3  4  1  0
  4  5  2  0
  5  6  1  0
  6  7  2  0
  6  8  1  0
  9  8  1  1
  9 10  1  0
 10 11  1  1
 11 12  1  1
 11 13  1  0
  9 14  1  0
 14 15  1  0
 15 16  1  0
 16 17  2  0
 17 18  1  0
 19 18  1  1
 18 20  2  0
 20 21  1  0
 20 22  1  0
 22 23  2  0
 23 24  1  0
 14 25  2  0
 25 26  1  0
 26 27  2  0
  7  2  1  0
 23 16  1  0
 26  5  1  0
M  END
$$$$
