_rank10
     RDKit          3D

 27 29  0  0  0  0  0  0  0  0999 V2000
    7.6230   12.3080    0.7378 C   0  0  0  0  0  0  0  0  0  0  0  0
    7.5381   11.5382   -0.5433 C   0  0  0  0  0  0  0  0  0  0  0  0
    8.7134   11.1839   -1.1944 C   0  0  0  0  0  0  0  0  0  0  0  0
    8.6342   10.4767   -2.3717 C   0  0  0  0  0  0  0  0  0  0  0  0
    7.3801   10.1569   -2.8427 C   0  0  0  0  0  0  0  0  0  0  0  0
    6.2134   10.5257   -2.1678 C   0  0  0  0  0  0  0  0  0  0  0  0
    6.3242   11.2150   -1.0219 N   0  0  0  0  0  0  0  0  0  0  0  0
    4.8570   10.2590   -2.5425 N   0  0  0  0  0  0  0  0  0  0  0  0
    4.3799    9.1778   -3.3833 C   0  0  2  0  0  0  0  0  0  0  0  0
    4.6770    7.8526   -2.6736 C   0  0  0  0  0  0  0  0  0  0  0  0
    3.4191    7.1425   -2.2877 C   0  0  1  0  0  0  0  0  0  0  0  0
    3.1120    7.4629   -0.9833 F   0  0  0  0  0  0  0  0  0  0  0  0
    2.3672    7.5471   -3.0804 F   0  0  0  0  0  0  0  0  0  0  0  0
    5.0589    9.1371   -4.6947 C   0  0  0  0  0  0  0  0  0  0  0  0
    4.1940    8.9712   -5.8055 N   0  0  0  0  0  0  0  0  0  0  0  0
    4.7743    8.6082   -7.0614 C   0  0  0  0  0  0  0  0  0  0  0  0
    4.2242    7.6347   -7.8785 C   0  0  0  0  0  0  0  0  0  0  0  0
    4.7924    7.2921   -9.0881 C   0  0  0  0  0  0  0  0  0  0  0  0
    4.2122    6.2454   -9.9808 C   0  0  0  0  0  0  0  0  0  0  0  0
    5.9480    7.9714   -9.4520 C   0  0  0  0  0  0  0  0  0  0  0  0
    6.6707    7.5363  -10.9895 Cl  0  0  0  0  0  0  0  0  0  0  0  0
    6.4941    8.9389   -8.6391 C   0  0  0  0  0  0  0  0  0  0  0  0
    5.9188    9.2749   -7.4309 C   0  0  0  0  0  0  0  0  0  0  0  0
    6.4855   10.2380   -6.6495 F   0  0  0  0  0  0  0  0  0  0  0  0
    6.3039    9.2293   -5.0065 N   0  0  0  0  0  0  0  0  0  0  0  0
    7.4181    9.4062   -4.1062 C   0  0  0  0  0  0  0  0  0  0  0  0
    8.5160    8.9065   -4.3726 O   0  0  0  0  0  0  0  0  0  0  0  0
  1  2  1  6
  2  3  2  0
  3  4  1  0
  4  5  2  0
  5  6  1  0
  6  7  2  0
  6  8  1  0
  9  8  1  1
  9 10  1  0
 10 11  1  1
 11 12  1  1
 11 13  1  0
  9 14  1  0
 14 15  1  0
 15 16  1  0
 16 17  2  0
 17 18  1  0
 19 18  1  1
 18 20  2  0
 20 21  1  0
 20 22  1  0
 22 23  2  0
 23 24  1  0
 14 25  2  0
 25 26  1  0
 26 27  2  0
  7  2  1  0
 23 16  1  0
 26  5  1  0
M  END
$$$$
