_rank8
     RDKit          3D

 27 29  0  0  0  0  0  0  0  0999 V2000
    7.0611    4.4243   -0.9886 C   0  0  0  0  0  0  0  0  0  0  0  0
    6.6065    5.5418   -1.8749 C   0  0  0  0  0  0  0  0  0  0  0  0
    5.5912    5.3019   -2.7927 C   0  0  0  0  0  0  0  0  0  0  0  0
    5.1743    6.3295   -3.6068 C   0  0  0  0  0  0  0  0  0  0  0  0
    5.7944    7.5509   -3.4637 C   0  0  0  0  0  0  0  0  0  0  0  0
    6.8136    7.7654   -2.5320 C   0  0  0  0  0  0  0  0  0  0  0  0
    7.1976    6.7429   -1.7525 N   0  0  0  0  0  0  0  0  0  0  0  0
    7.5367    8.9757   -2.2802 N   0  0  0  0  0  0  0  0  0  0  0  0
    7.0903   10.3303   -2.5433 C   0  0  2  0  0  0  0  0  0  0  0  0
    5.8720   10.6134   -1.6581 C   0  0  0  0  0  0  0  0  0  0  0  0
    6.2785   11.0906   -0.3008 C   0  0  1  0  0  0  0  0  0  0  0  0
    7.0355   12.2332   -0.4413 F   0  0  0  0  0  0  0  0  0  0  0  0
    5.1722   11.4079    0.4568 F   0  0  0  0  0  0  0  0  0  0  0  0
    6.6709   10.5269   -3.9460 C   0  0  0  0  0  0  0  0  0  0  0  0
    7.1771   11.7014   -4.5575 N   0  0  0  0  0  0  0  0  0  0  0  0
    7.1322   11.7898   -5.9843 C   0  0  0  0  0  0  0  0  0  0  0  0
    8.2711   11.7107   -6.7682 C   0  0  0  0  0  0  0  0  0  0  0  0
    8.2164   11.7974   -8.1440 C   0  0  0  0  0  0  0  0  0  0  0  0
    9.4343   11.7140   -9.0036 C   0  0  0  0  0  0  0  0  0  0  0  0
    6.9602   11.9685   -8.7113 C   0  0  0  0  0  0  0  0  0  0  0  0
    6.8900   12.0787  -10.4602 Cl  0  0  0  0  0  0  0  0  0  0  0  0
    5.8286   12.0469   -7.9313 C   0  0  0  0  0  0  0  0  0  0  0  0
    5.8930   11.9592   -6.5559 C   0  0  0  0  0  0  0  0  0  0  0  0
    4.7527   12.0408   -5.8127 F   0  0  0  0  0  0  0  0  0  0  0  0
    5.9251    9.8134   -4.7145 N   0  0  0  0  0  0  0  0  0  0  0  0
    5.2712    8.5693   -4.3859 C   0  0  0  0  0  0  0  0  0  0  0  0
    4.1808    8.2888   -4.8940 O   0  0  0  0  0  0  0  0  0  0  0  0
  1  2  1  6
  2  3  2  0
  3  4  1  0
  4  5  2  0
  5  6  1  0
  6  7  2  0
  6  8  1  0
  9  8  1  6
  9 10  1  0
 10 11  1  1
 11 12  1  6
 11 13  1  0
  9 14  1  0
 14 15  1  0
 15 16  1  0
 16 17  2  0
 17 18  1  0
 19 18  1  1
 18 20  2  0
 20 21  1  0
 20 22  1  0
 22 23  2  0
 23 24  1  0
 14 25  2  0
 25 26  1  0
 26 27  2  0
  7  2  1  0
 23 16  1  0
 26  5  1  0
M  END
$$$$
