_rank1
     RDKit          3D

 27 29  0  0  0  0  0  0  0  0999 V2000
    7.1677    3.2072   -6.3114 C   0  0  0  0  0  0  0  0  0  0  0  0
    6.8124    4.4418   -5.5430 C   0  0  0  0  0  0  0  0  0  0  0  0
    5.5844    4.5010   -4.8954 C   0  0  0  0  0  0  0  0  0  0  0  0
    5.2588    5.6362   -4.1898 C   0  0  0  0  0  0  0  0  0  0  0  0
    6.1793    6.6604   -4.1655 C   0  0  0  0  0  0  0  0  0  0  0  0
    7.4079    6.5749   -4.8258 C   0  0  0  0  0  0  0  0  0  0  0  0
    7.6958    5.4543   -5.5055 N   0  0  0  0  0  0  0  0  0  0  0  0
    8.4488    7.5571   -4.8808 N   0  0  0  0  0  0  0  0  0  0  0  0
    8.7057    8.6118   -3.9191 C   0  0  2  0  0  0  0  0  0  0  0  0
    9.0873    7.9610   -2.5853 C   0  0  0  0  0  0  0  0  0  0  0  0
   10.5657    7.7690   -2.4711 C   0  0  1  0  0  0  0  0  0  0  0  0
   11.1776    9.0025   -2.5200 F   0  0  0  0  0  0  0  0  0  0  0  0
   10.8905    7.1843   -1.2664 F   0  0  0  0  0  0  0  0  0  0  0  0
    7.5192    9.4568   -3.6734 C   0  0  0  0  0  0  0  0  0  0  0  0
    7.7719   10.8517   -3.6839 N   0  0  0  0  0  0  0  0  0  0  0  0
    6.6669   11.7369   -3.4811 C   0  0  0  0  0  0  0  0  0  0  0  0
    5.6817   11.9237   -4.4362 C   0  0  0  0  0  0  0  0  0  0  0  0
    4.6200   12.7805   -4.2302 C   0  0  0  0  0  0  0  0  0  0  0  0
    3.5497   12.9932   -5.2491 C   0  0  0  0  0  0  0  0  0  0  0  0
    4.5834   13.4513   -3.0145 C   0  0  0  0  0  0  0  0  0  0  0  0
    3.2341   14.5404   -2.7521 Cl  0  0  0  0  0  0  0  0  0  0  0  0
    5.5632   13.2649   -2.0657 C   0  0  0  0  0  0  0  0  0  0  0  0
    6.6213   12.4060   -2.2805 C   0  0  0  0  0  0  0  0  0  0  0  0
    7.5751   12.2443   -1.3196 F   0  0  0  0  0  0  0  0  0  0  0  0
    6.2900    9.1466   -3.4533 N   0  0  0  0  0  0  0  0  0  0  0  0
    5.7231    7.8208   -3.3867 C   0  0  0  0  0  0  0  0  0  0  0  0
    4.7751    7.5891   -2.6293 O   0  0  0  0  0  0  0  0  0  0  0  0
  1  2  1  6
  2  3  2  0
  3  4  1  0
  4  5  2  0
  5  6  1  0
  6  7  2  0
  6  8  1  0
  9  8  1  6
  9 10  1  0
 10 11  1  1
 11 12  1  1
 11 13  1  0
  9 14  1  0
 14 15  1  0
 15 16  1  0
 16 17  2  0
 17 18  1  0
 19 18  1  1
 18 20  2  0
 20 21  1  0
 20 22  1  0
 22 23  2  0
 23 24  1  0
 14 25  2  0
 25 26  1  0
 26 27  2  0
  7  2  1  0
 23 16  1  0
 26  5  1  0
M  END
$$$$
