_rank3
     RDKit          3D

 27 29  0  0  0  0  0  0  0  0999 V2000
    3.7743   10.5162    1.3408 C   0  0  0  0  0  0  0  0  0  0  0  0
    4.0334   10.1395   -0.0846 C   0  0  0  0  0  0  0  0  0  0  0  0
    3.0557   10.3987   -1.0373 C   0  0  0  0  0  0  0  0  0  0  0  0
    3.2947   10.0518   -2.3469 C   0  0  0  0  0  0  0  0  0  0  0  0
    4.5033    9.4607   -2.6417 C   0  0  0  0  0  0  0  0  0  0  0  0
    5.4699    9.2113   -1.6638 C   0  0  0  0  0  0  0  0  0  0  0  0
    5.2065    9.5613   -0.3955 N   0  0  0  0  0  0  0  0  0  0  0  0
    6.7585    8.6093   -1.8321 N   0  0  0  0  0  0  0  0  0  0  0  0
    7.5521    8.5700   -3.0454 C   0  0  2  0  0  0  0  0  0  0  0  0
    7.9305   10.0077   -3.4168 C   0  0  0  0  0  0  0  0  0  0  0  0
    9.2221   10.4163   -2.7844 C   0  0  1  0  0  0  0  0  0  0  0  0
   10.2052    9.5335   -3.1747 F   0  0  0  0  0  0  0  0  0  0  0  0
    9.5945   11.6749   -3.2039 F   0  0  0  0  0  0  0  0  0  0  0  0
    6.8116    7.9998   -4.1894 C   0  0  0  0  0  0  0  0  0  0  0  0
    7.5327    7.0409   -4.9443 N   0  0  0  0  0  0  0  0  0  0  0  0
    6.7969    6.1842   -5.8220 C   0  0  0  0  0  0  0  0  0  0  0  0
    6.4720    6.5523   -7.1169 C   0  0  0  0  0  0  0  0  0  0  0  0
    5.7615    5.7179   -7.9552 C   0  0  0  0  0  0  0  0  0  0  0  0
    5.4032    6.0991   -9.3535 C   0  0  0  0  0  0  0  0  0  0  0  0
    5.3844    4.4848   -7.4391 C   0  0  0  0  0  0  0  0  0  0  0  0
    4.4813    3.4239   -8.5042 Cl  0  0  0  0  0  0  0  0  0  0  0  0
    5.7078    4.1199   -6.1517 C   0  0  0  0  0  0  0  0  0  0  0  0
    6.4187    4.9609   -5.3205 C   0  0  0  0  0  0  0  0  0  0  0  0
    6.7227    4.5684   -4.0505 F   0  0  0  0  0  0  0  0  0  0  0  0
    5.6195    8.2204   -4.6207 N   0  0  0  0  0  0  0  0  0  0  0  0
    4.6459    9.1311   -4.0673 C   0  0  0  0  0  0  0  0  0  0  0  0
    3.8432    9.7066   -4.8092 O   0  0  0  0  0  0  0  0  0  0  0  0
  1  2  1  6
  2  3  2  0
  3  4  1  0
  4  5  2  0
  5  6  1  0
  6  7  2  0
  6  8  1  0
  9  8  1  1
  9 10  1  0
 10 11  1  1
 11 12  1  6
 11 13  1  0
  9 14  1  0
 14 15  1  0
 15 16  1  0
 16 17  2  0
 17 18  1  0
 19 18  1  1
 18 20  2  0
 20 21  1  0
 20 22  1  0
 22 23  2  0
 23 24  1  0
 14 25  2  0
 25 26  1  0
 26 27  2  0
  7  2  1  0
 23 16  1  0
 26  5  1  0
M  END
$$$$
