_rank7
     RDKit          3D

 27 29  0  0  0  0  0  0  0  0999 V2000
    7.9089    2.7720   -2.8754 C   0  0  0  0  0  0  0  0  0  0  0  0
    6.9990    3.7338   -3.5740 C   0  0  0  0  0  0  0  0  0  0  0  0
    6.0153    3.2359   -4.4196 C   0  0  0  0  0  0  0  0  0  0  0  0
    5.1799    4.1207   -5.0613 C   0  0  0  0  0  0  0  0  0  0  0  0
    5.3688    5.4644   -4.8259 C   0  0  0  0  0  0  0  0  0  0  0  0
    6.3664    5.9388   -3.9700 C   0  0  0  0  0  0  0  0  0  0  0  0
    7.1651    5.0503   -3.3591 N   0  0  0  0  0  0  0  0  0  0  0  0
    6.6690    7.2987   -3.6378 N   0  0  0  0  0  0  0  0  0  0  0  0
    5.7661    8.4324   -3.6922 C   0  0  2  0  0  0  0  0  0  0  0  0
    4.6450    8.2010   -2.6735 C   0  0  0  0  0  0  0  0  0  0  0  0
    4.5802    9.3056   -1.6680 C   0  0  1  0  0  0  0  0  0  0  0  0
    4.7933   10.5044   -2.3127 F   0  0  0  0  0  0  0  0  0  0  0  0
    3.3352    9.3582   -1.0800 F   0  0  0  0  0  0  0  0  0  0  0  0
    5.1319    8.5894   -5.0171 C   0  0  0  0  0  0  0  0  0  0  0  0
    5.1350    9.9135   -5.5231 N   0  0  0  0  0  0  0  0  0  0  0  0
    5.3921   10.1001   -6.9177 C   0  0  0  0  0  0  0  0  0  0  0  0
    4.4215    9.8959   -7.8842 C   0  0  0  0  0  0  0  0  0  0  0  0
    4.6805   10.0786   -9.2270 C   0  0  0  0  0  0  0  0  0  0  0  0
    3.6458    9.8630  -10.2816 C   0  0  0  0  0  0  0  0  0  0  0  0
    5.9660   10.4789   -9.5682 C   0  0  0  0  0  0  0  0  0  0  0  0
    6.2957   10.7113  -11.2749 Cl  0  0  0  0  0  0  0  0  0  0  0  0
    6.9301   10.6816   -8.6066 C   0  0  0  0  0  0  0  0  0  0  0  0
    6.6620   10.4964   -7.2660 C   0  0  0  0  0  0  0  0  0  0  0  0
    7.6399   10.7058   -6.3391 F   0  0  0  0  0  0  0  0  0  0  0  0
    4.5770    7.7295   -5.7971 N   0  0  0  0  0  0  0  0  0  0  0  0
    4.4235    6.3130   -5.5660 C   0  0  0  0  0  0  0  0  0  0  0  0
    3.4347    5.7167   -6.0049 O   0  0  0  0  0  0  0  0  0  0  0  0
  1  2  1  6
  2  3  2  0
  3  4  1  0
  4  5  2  0
  5  6  1  0
  6  7  2  0
  6  8  1  0
  9  8  1  6
  9 10  1  0
 10 11  1  1
 11 12  1  6
 11 13  1  0
  9 14  1  0
 14 15  1  0
 15 16  1  0
 16 17  2  0
 17 18  1  0
 19 18  1  1
 18 20  2  0
 20 21  1  0
 20 22  1  0
 22 23  2  0
 23 24  1  0
 14 25  2  0
 25 26  1  0
 26 27  2  0
  7  2  1  0
 23 16  1  0
 26  5  1  0
M  END
$$$$
