_rank3
     RDKit          3D

 30 32  0  0  0  0  0  0  0  0999 V2000
    2.3945    8.4028   -8.2553 C   0  0  0  0  0  0  0  0  0  0  0  0
    3.6040    7.9699   -7.4796 C   0  0  0  0  0  0  0  0  0  0  0  0
    3.2601    7.7235   -6.0046 C   0  0  2  0  0  0  0  0  0  0  0  0
    3.2586    8.9510   -5.2836 N   0  0  0  0  0  0  0  0  0  0  0  0
    4.0925    9.5698   -4.3118 C   0  0  0  0  0  0  0  0  0  0  0  0
    3.9442   10.8219   -4.1345 O   0  0  0  0  0  0  0  0  0  0  0  0
    5.0691    8.8947   -3.5334 N   0  0  0  0  0  0  0  0  0  0  0  0
    5.5415    9.6359   -2.3830 C   0  0  0  0  0  0  0  0  0  0  0  0
    6.9400   10.1119   -2.5373 C   0  0  0  0  0  0  0  0  0  0  0  0
    7.9494    9.7375   -1.6931 C   0  0  0  0  0  0  0  0  0  0  0  0
    9.2600   10.1901   -1.8462 C   0  0  0  0  0  0  0  0  0  0  0  0
   10.2568    9.8171   -1.0083 F   0  0  0  0  0  0  0  0  0  0  0  0
    9.5796   11.0474   -2.8773 C   0  0  0  0  0  0  0  0  0  0  0  0
    8.5753   11.4363   -3.7391 C   0  0  0  0  0  0  0  0  0  0  0  0
    8.8995   12.2817   -4.7528 F   0  0  0  0  0  0  0  0  0  0  0  0
    7.2652   10.9722   -3.5705 C   0  0  0  0  0  0  0  0  0  0  0  0
    5.6392    7.5931   -3.7378 C   0  0  0  0  0  0  0  0  0  0  0  0
    6.6945    7.3332   -3.1183 O   0  0  0  0  0  0  0  0  0  0  0  0
    5.1518    6.5502   -4.5638 N   0  0  0  0  0  0  0  0  0  0  0  0
    5.8505    5.3072   -4.4933 C   0  0  0  0  0  0  0  0  0  0  0  0
    6.9450    5.1800   -5.4740 C   0  0  0  0  0  0  0  0  0  0  0  0
    7.2710    6.1500   -6.3863 C   0  0  0  0  0  0  0  0  0  0  0  0
    8.3228    5.9467   -7.2788 C   0  0  0  0  0  0  0  0  0  0  0  0
    8.6651    6.8846   -8.1874 F   0  0  0  0  0  0  0  0  0  0  0  0
    9.0611    4.7807   -7.2756 C   0  0  0  0  0  0  0  0  0  0  0  0
    8.7310    3.7959   -6.3502 C   0  0  0  0  0  0  0  0  0  0  0  0
    7.6790    4.0132   -5.4660 C   0  0  0  0  0  0  0  0  0  0  0  0
    7.3311    2.7108   -4.3279 Cl  0  0  0  0  0  0  0  0  0  0  0  0
    4.0469    6.6314   -5.4418 C   0  0  0  0  0  0  0  0  0  0  0  0
    3.6568    5.4748   -5.8233 O   0  0  0  0  0  0  0  0  0  0  0  0
  2  1  1  6
  2  3  1  0
  3  4  1  1
  4  5  1  0
  5  6  2  0
  5  7  1  0
  8  7  1  1
  8  9  1  0
  9 10  2  0
 10 11  1  0
 11 12  1  0
 11 13  2  0
 13 14  1  0
 14 15  1  0
 14 16  2  0
  7 17  1  0
 17 18  2  0
 17 19  1  0
 20 19  1  1
 20 21  1  0
 21 22  2  0
 22 23  1  0
 23 24  1  0
 23 25  2  0
 25 26  1  0
 26 27  2  0
 27 28  1  0
 19 29  1  0
 29 30  2  0
 29  3  1  0
 16  9  1  0
 27 21  1  0
M  END
$$$$
