_rank8
     RDKit          3D

 30 32  0  0  0  0  0  0  0  0999 V2000
    3.8417    4.2930   -3.2361 C   0  0  0  0  0  0  0  0  0  0  0  0
    4.1475    5.6934   -2.7917 C   0  0  0  0  0  0  0  0  0  0  0  0
    5.3605    6.2622   -3.5397 C   0  0  2  0  0  0  0  0  0  0  0  0
    6.1723    7.0298   -2.6576 N   0  0  0  0  0  0  0  0  0  0  0  0
    6.4605    8.4099   -2.4700 C   0  0  0  0  0  0  0  0  0  0  0  0
    6.9899    8.7452   -1.3617 O   0  0  0  0  0  0  0  0  0  0  0  0
    6.2013    9.4292   -3.4234 N   0  0  0  0  0  0  0  0  0  0  0  0
    6.8853   10.6799   -3.1705 C   0  0  0  0  0  0  0  0  0  0  0  0
    6.3070   11.4335   -2.0287 C   0  0  0  0  0  0  0  0  0  0  0  0
    7.0048   12.3863   -1.3380 C   0  0  0  0  0  0  0  0  0  0  0  0
    6.4529   13.0889   -0.2666 C   0  0  0  0  0  0  0  0  0  0  0  0
    7.1470   14.0316    0.4148 F   0  0  0  0  0  0  0  0  0  0  0  0
    5.1585   12.8349    0.1336 C   0  0  0  0  0  0  0  0  0  0  0  0
    4.4387   11.8775   -0.5504 C   0  0  0  0  0  0  0  0  0  0  0  0
    3.1633   11.6337   -0.1489 F   0  0  0  0  0  0  0  0  0  0  0  0
    5.0086   11.1820   -1.6236 C   0  0  0  0  0  0  0  0  0  0  0  0
    5.3615    9.3797   -4.5867 C   0  0  0  0  0  0  0  0  0  0  0  0
    5.0390   10.4742   -5.0996 O   0  0  0  0  0  0  0  0  0  0  0  0
    4.8438    8.2325   -5.2373 N   0  0  0  0  0  0  0  0  0  0  0  0
    4.1280    8.4615   -6.4512 C   0  0  0  0  0  0  0  0  0  0  0  0
    4.1046    7.2998   -7.3598 C   0  0  0  0  0  0  0  0  0  0  0  0
    5.0530    6.3098   -7.3601 C   0  0  0  0  0  0  0  0  0  0  0  0
    4.9535    5.2452   -8.2550 C   0  0  0  0  0  0  0  0  0  0  0  0
    5.8731    4.2571   -8.2771 F   0  0  0  0  0  0  0  0  0  0  0  0
    3.9137    5.1517   -9.1576 C   0  0  0  0  0  0  0  0  0  0  0  0
    2.9509    6.1557   -9.1580 C   0  0  0  0  0  0  0  0  0  0  0  0
    3.0636    7.2117   -8.2591 C   0  0  0  0  0  0  0  0  0  0  0  0
    1.7980    8.4389   -8.3303 Cl  0  0  0  0  0  0  0  0  0  0  0  0
    4.9723    6.8959   -4.7951 C   0  0  0  0  0  0  0  0  0  0  0  0
    4.6776    6.0598   -5.7168 O   0  0  0  0  0  0  0  0  0  0  0  0
  2  1  1  6
  2  3  1  0
  3  4  1  1
  4  5  1  0
  5  6  2  0
  5  7  1  0
  8  7  1  1
  8  9  1  0
  9 10  2  0
 10 11  1  0
 11 12  1  0
 11 13  2  0
 13 14  1  0
 14 15  1  0
 14 16  2  0
  7 17  1  0
 17 18  2  0
 17 19  1  0
 20 19  1  1
 20 21  1  0
 21 22  2  0
 22 23  1  0
 23 24  1  0
 23 25  2  0
 25 26  1  0
 26 27  2  0
 27 28  1  0
 19 29  1  0
 29 30  2  0
 29  3  1  0
 16  9  1  0
 27 21  1  0
M  END
$$$$
