_rank6
     RDKit          3D

 30 32  0  0  0  0  0  0  0  0999 V2000
    5.2722   11.4465    0.2421 C   0  0  0  0  0  0  0  0  0  0  0  0
    5.1418   11.2423   -1.2389 C   0  0  0  0  0  0  0  0  0  0  0  0
    5.6806    9.8688   -1.6607 C   0  0  2  0  0  0  0  0  0  0  0  0
    7.1027    9.8910   -1.7217 N   0  0  0  0  0  0  0  0  0  0  0  0
    8.0848    9.8682   -2.7502 C   0  0  0  0  0  0  0  0  0  0  0  0
    9.2635   10.2305   -2.4332 O   0  0  0  0  0  0  0  0  0  0  0  0
    7.8442    9.4736   -4.0925 N   0  0  0  0  0  0  0  0  0  0  0  0
    9.0380    9.1941   -4.8623 C   0  0  0  0  0  0  0  0  0  0  0  0
    9.9747   10.3456   -4.9137 C   0  0  0  0  0  0  0  0  0  0  0  0
   11.3275   10.2100   -4.7616 C   0  0  0  0  0  0  0  0  0  0  0  0
   12.1993   11.2980   -4.8112 C   0  0  0  0  0  0  0  0  0  0  0  0
   13.5383   11.1597   -4.6602 F   0  0  0  0  0  0  0  0  0  0  0  0
   11.7080   12.5689   -5.0200 C   0  0  0  0  0  0  0  0  0  0  0  0
   10.3465   12.7260   -5.1757 C   0  0  0  0  0  0  0  0  0  0  0  0
    9.8710   13.9826   -5.3811 F   0  0  0  0  0  0  0  0  0  0  0  0
    9.4861   11.6227   -5.1230 C   0  0  0  0  0  0  0  0  0  0  0  0
    6.5897    9.3191   -4.7731 C   0  0  0  0  0  0  0  0  0  0  0  0
    6.6253    9.2691   -6.0225 O   0  0  0  0  0  0  0  0  0  0  0  0
    5.2973    9.2146   -4.2016 N   0  0  0  0  0  0  0  0  0  0  0  0
    4.2248    8.9476   -5.1052 C   0  0  0  0  0  0  0  0  0  0  0  0
    4.0383    7.5155   -5.4054 C   0  0  0  0  0  0  0  0  0  0  0  0
    4.8650    6.5236   -4.9448 C   0  0  0  0  0  0  0  0  0  0  0  0
    4.6147    5.1928   -5.2775 C   0  0  0  0  0  0  0  0  0  0  0  0
    5.4123    4.1963   -4.8379 F   0  0  0  0  0  0  0  0  0  0  0  0
    3.5433    4.8327   -6.0694 C   0  0  0  0  0  0  0  0  0  0  0  0
    2.7040    5.8386   -6.5372 C   0  0  0  0  0  0  0  0  0  0  0  0
    2.9665    7.1619   -6.1968 C   0  0  0  0  0  0  0  0  0  0  0  0
    1.8503    8.3704   -6.8341 Cl  0  0  0  0  0  0  0  0  0  0  0  0
    4.9803    9.3500   -2.8306 C   0  0  0  0  0  0  0  0  0  0  0  0
    3.8070    8.9138   -2.5687 O   0  0  0  0  0  0  0  0  0  0  0  0
  2  1  1  6
  2  3  1  0
  3  4  1  6
  4  5  1  0
  5  6  2  0
  5  7  1  0
  8  7  1  1
  8  9  1  0
  9 10  2  0
 10 11  1  0
 11 12  1  0
 11 13  2  0
 13 14  1  0
 14 15  1  0
 14 16  2  0
  7 17  1  0
 17 18  2  0
 17 19  1  0
 20 19  1  1
 20 21  1  0
 21 22  2  0
 22 23  1  0
 23 24  1  0
 23 25  2  0
 25 26  1  0
 26 27  2  0
 27 28  1  0
 19 29  1  0
 29 30  2  0
 29  3  1  0
 16  9  1  0
 27 21  1  0
M  END
$$$$
