_rank10
     RDKit          3D

 30 32  0  0  0  0  0  0  0  0999 V2000
    7.0215    7.8253    0.0507 C   0  0  0  0  0  0  0  0  0  0  0  0
    8.0287    7.7694   -1.0604 C   0  0  0  0  0  0  0  0  0  0  0  0
    7.3548    7.4797   -2.4082 C   0  0  2  0  0  0  0  0  0  0  0  0
    8.3048    6.9723   -3.3390 N   0  0  0  0  0  0  0  0  0  0  0  0
    8.9558    7.4580   -4.5066 C   0  0  0  0  0  0  0  0  0  0  0  0
    9.9940    6.8308   -4.8938 O   0  0  0  0  0  0  0  0  0  0  0  0
    8.5324    8.5825   -5.2626 N   0  0  0  0  0  0  0  0  0  0  0  0
    9.1221    8.6796   -6.5813 C   0  0  0  0  0  0  0  0  0  0  0  0
    9.8325    7.4405   -6.9887 C   0  0  0  0  0  0  0  0  0  0  0  0
    9.2037    6.3909   -7.6009 C   0  0  0  0  0  0  0  0  0  0  0  0
    9.8797    5.2309   -7.9797 C   0  0  0  0  0  0  0  0  0  0  0  0
    9.2536    4.1938   -8.5857 F   0  0  0  0  0  0  0  0  0  0  0  0
   11.2320    5.1094   -7.7412 C   0  0  0  0  0  0  0  0  0  0  0  0
   11.8838    6.1572   -7.1249 C   0  0  0  0  0  0  0  0  0  0  0  0
   13.2169    6.0287   -6.8937 F   0  0  0  0  0  0  0  0  0  0  0  0
   11.1894    7.3142   -6.7513 C   0  0  0  0  0  0  0  0  0  0  0  0
    7.6102    9.6188   -4.8931 C   0  0  0  0  0  0  0  0  0  0  0  0
    7.6258   10.6631   -5.5815 O   0  0  0  0  0  0  0  0  0  0  0  0
    6.6708    9.6092   -3.8324 N   0  0  0  0  0  0  0  0  0  0  0  0
    5.7881   10.7288   -3.7578 C   0  0  0  0  0  0  0  0  0  0  0  0
    4.4442   10.4684   -4.3072 C   0  0  0  0  0  0  0  0  0  0  0  0
    4.1060    9.3311   -4.9940 C   0  0  0  0  0  0  0  0  0  0  0  0
    2.8094    9.1661   -5.4798 C   0  0  0  0  0  0  0  0  0  0  0  0
    2.4492    8.0567   -6.1592 F   0  0  0  0  0  0  0  0  0  0  0  0
    1.8364   10.1262   -5.2897 C   0  0  0  0  0  0  0  0  0  0  0  0
    2.1788   11.2805   -4.5930 C   0  0  0  0  0  0  0  0  0  0  0  0
    3.4765   11.4309   -4.1142 C   0  0  0  0  0  0  0  0  0  0  0  0
    3.8211   12.9256   -3.2426 Cl  0  0  0  0  0  0  0  0  0  0  0  0
    6.5323    8.5998   -2.8524 C   0  0  0  0  0  0  0  0  0  0  0  0
    5.4280    8.7033   -2.2160 O   0  0  0  0  0  0  0  0  0  0  0  0
  2  1  1  6
  2  3  1  0
  3  4  1  6
  4  5  1  0
  5  6  2  0
  5  7  1  0
  8  7  1  1
  8  9  1  0
  9 10  2  0
 10 11  1  0
 11 12  1  0
 11 13  2  0
 13 14  1  0
 14 15  1  0
 14 16  2  0
  7 17  1  0
 17 18  2  0
 17 19  1  0
 20 19  1  1
 20 21  1  0
 21 22  2  0
 22 23  1  0
 23 24  1  0
 23 25  2  0
 25 26  1  0
 26 27  2  0
 27 28  1  0
 19 29  1  0
 29 30  2  0
 29  3  1  0
 16  9  1  0
 27 21  1  0
M  END
$$$$
