_rank9
     RDKit          3D

 30 32  0  0  0  0  0  0  0  0999 V2000
    4.6158    3.7329   -2.9828 C   0  0  0  0  0  0  0  0  0  0  0  0
    4.6455    5.2283   -2.8607 C   0  0  0  0  0  0  0  0  0  0  0  0
    5.4662    5.8627   -3.9914 C   0  0  2  0  0  0  0  0  0  0  0  0
    6.5967    6.5459   -3.4609 N   0  0  0  0  0  0  0  0  0  0  0  0
    6.9889    7.9029   -3.2943 C   0  0  0  0  0  0  0  0  0  0  0  0
    7.9383    8.1350   -2.4784 O   0  0  0  0  0  0  0  0  0  0  0  0
    6.4008    9.0054   -3.9680 N   0  0  0  0  0  0  0  0  0  0  0  0
    7.1755   10.2273   -3.9157 C   0  0  0  0  0  0  0  0  0  0  0  0
    7.0526   10.9336   -2.6149 C   0  0  0  0  0  0  0  0  0  0  0  0
    8.0719   10.9961   -1.7045 C   0  0  0  0  0  0  0  0  0  0  0  0
    7.9467   11.6620   -0.4850 C   0  0  0  0  0  0  0  0  0  0  0  0
    8.9583   11.7216    0.4139 F   0  0  0  0  0  0  0  0  0  0  0  0
    6.7638   12.2895   -0.1580 C   0  0  0  0  0  0  0  0  0  0  0  0
    5.7243   12.2376   -1.0631 C   0  0  0  0  0  0  0  0  0  0  0  0
    4.5617   12.8591   -0.7322 F   0  0  0  0  0  0  0  0  0  0  0  0
    5.8675   11.5647   -2.2825 C   0  0  0  0  0  0  0  0  0  0  0  0
    5.1568    9.0631   -4.6823 C   0  0  0  0  0  0  0  0  0  0  0  0
    4.6944   10.2001   -4.9238 O   0  0  0  0  0  0  0  0  0  0  0  0
    4.3747    7.9805   -5.1553 N   0  0  0  0  0  0  0  0  0  0  0  0
    3.2336    8.3201   -5.9433 C   0  0  0  0  0  0  0  0  0  0  0  0
    3.1222    7.5508   -7.1969 C   0  0  0  0  0  0  0  0  0  0  0  0
    4.1642    6.8698   -7.7715 C   0  0  0  0  0  0  0  0  0  0  0  0
    3.9705    6.1668   -8.9599 C   0  0  0  0  0  0  0  0  0  0  0  0
    4.9787    5.4878   -9.5473 F   0  0  0  0  0  0  0  0  0  0  0  0
    2.7431    6.1320   -9.5898 C   0  0  0  0  0  0  0  0  0  0  0  0
    1.6853    6.8226   -9.0075 C   0  0  0  0  0  0  0  0  0  0  0  0
    1.8938    7.5196   -7.8215 C   0  0  0  0  0  0  0  0  0  0  0  0
    0.4968    8.3661   -7.1549 Cl  0  0  0  0  0  0  0  0  0  0  0  0
    4.6221    6.6090   -4.9182 C   0  0  0  0  0  0  0  0  0  0  0  0
    3.9439    5.8610   -5.7031 O   0  0  0  0  0  0  0  0  0  0  0  0
  2  1  1  6
  2  3  1  0
  3  4  1  1
  4  5  1  0
  5  6  2  0
  5  7  1  0
  8  7  1  1
  8  9  1  0
  9 10  2  0
 10 11  1  0
 11 12  1  0
 11 13  2  0
 13 14  1  0
 14 15  1  0
 14 16  2  0
  7 17  1  0
 17 18  2  0
 17 19  1  0
 20 19  1  1
 20 21  1  0
 21 22  2  0
 22 23  1  0
 23 24  1  0
 23 25  2  0
 25 26  1  0
 26 27  2  0
 27 28  1  0
 19 29  1  0
 29 30  2  0
 29  3  1  0
 16  9  1  0
 27 21  1  0
M  END
$$$$
