_rank1
     RDKit          3D

 30 32  0  0  0  0  0  0  0  0999 V2000
   11.5281    9.9438   -2.1405 C   0  0  0  0  0  0  0  0  0  0  0  0
   10.5295   10.0782   -3.2525 C   0  0  0  0  0  0  0  0  0  0  0  0
    9.1753    9.4723   -2.8604 C   0  0  2  0  0  0  0  0  0  0  0  0
    8.8289    8.4151   -3.7485 N   0  0  0  0  0  0  0  0  0  0  0  0
    7.8799    8.2210   -4.7899 C   0  0  0  0  0  0  0  0  0  0  0  0
    8.0830    7.2466   -5.5840 O   0  0  0  0  0  0  0  0  0  0  0  0
    6.7334    9.0304   -5.0033 N   0  0  0  0  0  0  0  0  0  0  0  0
    5.7403    8.4499   -5.8824 C   0  0  0  0  0  0  0  0  0  0  0  0
    5.0505    7.2798   -5.2814 C   0  0  0  0  0  0  0  0  0  0  0  0
    4.4096    6.3305   -6.0296 C   0  0  0  0  0  0  0  0  0  0  0  0
    3.7644    5.2349   -5.4558 C   0  0  0  0  0  0  0  0  0  0  0  0
    3.1308    4.2970   -6.2000 F   0  0  0  0  0  0  0  0  0  0  0  0
    3.7557    5.0766   -4.0864 C   0  0  0  0  0  0  0  0  0  0  0  0
    4.3966    6.0235   -3.3149 C   0  0  0  0  0  0  0  0  0  0  0  0
    4.3830    5.8594   -1.9658 F   0  0  0  0  0  0  0  0  0  0  0  0
    5.0393    7.1170   -3.9078 C   0  0  0  0  0  0  0  0  0  0  0  0
    6.4376   10.3293   -4.4685 C   0  0  0  0  0  0  0  0  0  0  0  0
    5.5294   10.9803   -5.0309 O   0  0  0  0  0  0  0  0  0  0  0  0
    7.0523   10.9775   -3.3686 N   0  0  0  0  0  0  0  0  0  0  0  0
    6.4840   12.2250   -2.9701 C   0  0  0  0  0  0  0  0  0  0  0  0
    6.0870   12.2749   -1.5504 C   0  0  0  0  0  0  0  0  0  0  0  0
    6.3372   11.2714   -0.6505 C   0  0  0  0  0  0  0  0  0  0  0  0
    5.9261   11.4013    0.6755 C   0  0  0  0  0  0  0  0  0  0  0  0
    6.1593   10.4289    1.5823 F   0  0  0  0  0  0  0  0  0  0  0  0
    5.2633   12.5265    1.1220 C   0  0  0  0  0  0  0  0  0  0  0  0
    5.0089   13.5452    0.2096 C   0  0  0  0  0  0  0  0  0  0  0  0
    5.4252   13.4012   -1.1101 C   0  0  0  0  0  0  0  0  0  0  0  0
    5.0605   14.7423   -2.1970 Cl  0  0  0  0  0  0  0  0  0  0  0  0
    8.1664   10.5027   -2.6394 C   0  0  0  0  0  0  0  0  0  0  0  0
    8.3126   11.1284   -1.5338 O   0  0  0  0  0  0  0  0  0  0  0  0
  2  1  1  6
  2  3  1  0
  3  4  1  6
  4  5  1  0
  5  6  2  0
  5  7  1  0
  8  7  1  1
  8  9  1  0
  9 10  2  0
 10 11  1  0
 11 12  1  0
 11 13  2  0
 13 14  1  0
 14 15  1  0
 14 16  2  0
  7 17  1  0
 17 18  2  0
 17 19  1  0
 20 19  1  1
 20 21  1  0
 21 22  2  0
 22 23  1  0
 23 24  1  0
 23 25  2  0
 25 26  1  0
 26 27  2  0
 27 28  1  0
 19 29  1  0
 29 30  2  0
 29  3  1  0
 16  9  1  0
 27 21  1  0
M  END
$$$$
