_rank6
     RDKit          3D

 26 27  0  0  0  0  0  0  0  0999 V2000
    6.9394   11.5214    0.9592 C   0  0  0  0  0  0  0  0  0  0  0  0
    6.2087   11.2922   -0.2711 N   0  0  0  0  0  0  0  0  0  0  0  0
    6.5707   10.2797   -1.2104 C   0  0  0  0  0  0  0  0  0  0  0  0
    7.0797    9.2346   -0.7370 O   0  0  0  0  0  0  0  0  0  0  0  0
    6.3682   10.4271   -2.6720 C   0  0  0  0  0  0  0  0  0  0  0  0
    6.7802    9.1386   -3.3308 C   0  0  2  0  0  0  0  0  0  0  0  0
    7.9919    9.3357   -4.1675 C   0  0  0  0  0  0  0  0  0  0  0  0
    8.3607   10.5540   -4.3377 O   0  0  0  0  0  0  0  0  0  0  0  0
    8.7899    8.3413   -4.8001 N   0  0  0  0  0  0  0  0  0  0  0  0
    8.3744    7.0544   -5.2415 C   0  0  0  0  0  0  0  0  0  0  0  0
    9.4136    6.2871   -5.6499 C   0  0  0  0  0  0  0  0  0  0  0  0
    9.1389    5.0089   -6.1058 C   0  0  0  0  0  0  0  0  0  0  0  0
   10.1767    4.2138   -6.5247 O   0  0  0  0  0  0  0  0  0  0  0  0
   11.3553    4.1426   -5.7558 C   0  0  0  0  0  0  0  0  0  0  0  0
    7.8237    4.5321   -6.1400 C   0  0  0  0  0  0  0  0  0  0  0  0
    7.6271    3.2399   -6.6100 O   0  0  0  0  0  0  0  0  0  0  0  0
    7.3242    2.2243   -5.6753 C   0  0  0  0  0  0  0  0  0  0  0  0
    6.7826    5.3175   -5.7245 C   0  0  0  0  0  0  0  0  0  0  0  0
    7.0624    6.5873   -5.2724 C   0  0  0  0  0  0  0  0  0  0  0  0
    5.8619    7.3331   -4.8533 C   0  0  0  0  0  0  0  0  0  0  0  0
    4.7655    6.8727   -5.3256 O   0  0  0  0  0  0  0  0  0  0  0  0
    5.6980    8.4738   -4.0175 N   0  0  0  0  0  0  0  0  0  0  0  0
    4.3376    8.9715   -3.8767 C   0  0  0  0  0  0  0  0  0  0  0  0
    3.8981    9.8679   -4.9793 C   0  0  1  0  0  0  0  0  0  0  0  0
    4.0752    9.1396   -6.1662 F   0  0  0  0  0  0  0  0  0  0  0  0
    2.5394   10.1425   -4.9416 F   0  0  0  0  0  0  0  0  0  0  0  0
  1  2  1  6
  2  3  1  0
  3  4  2  0
  5  3  1  6
  5  6  1  0
  6  7  1  0
  7  8  2  0
  7  9  1  0
  9 10  1  0
 10 11  2  0
 11 12  1  0
 12 13  1  0
 14 13  1  1
 12 15  2  0
 15 16  1  0
 17 16  1  6
 15 18  1  0
 18 19  2  0
 19 20  1  0
 20 21  2  0
 20 22  1  0
 23 22  1  1
 23 24  1  0
 24 25  1  6
 24 26  1  0
  6 22  1  6
 19 10  1  0
M  END
$$$$
