_rank10
     RDKit          3D

 26 27  0  0  0  0  0  0  0  0999 V2000
    1.9841    8.9912   -1.1770 C   0  0  0  0  0  0  0  0  0  0  0  0
    3.2356    9.7187   -1.1098 N   0  0  0  0  0  0  0  0  0  0  0  0
    4.3856    9.3547   -1.8738 C   0  0  0  0  0  0  0  0  0  0  0  0
    5.3847    8.9588   -1.2254 O   0  0  0  0  0  0  0  0  0  0  0  0
    4.4263    9.4301   -3.3542 C   0  0  0  0  0  0  0  0  0  0  0  0
    5.7501    8.8802   -3.8116 C   0  0  2  0  0  0  0  0  0  0  0  0
    6.7710    9.9565   -3.8924 C   0  0  0  0  0  0  0  0  0  0  0  0
    6.3313   11.1547   -3.7511 O   0  0  0  0  0  0  0  0  0  0  0  0
    8.1715    9.8200   -4.1063 N   0  0  0  0  0  0  0  0  0  0  0  0
    8.8400    8.7736   -4.8004 C   0  0  0  0  0  0  0  0  0  0  0  0
   10.1872    8.8516   -4.6809 C   0  0  0  0  0  0  0  0  0  0  0  0
   10.9535    7.8882   -5.3147 C   0  0  0  0  0  0  0  0  0  0  0  0
   12.3209    7.9477   -5.2071 O   0  0  0  0  0  0  0  0  0  0  0  0
   13.0004    9.1209   -5.5908 C   0  0  0  0  0  0  0  0  0  0  0  0
   10.3457    6.8678   -6.0547 C   0  0  0  0  0  0  0  0  0  0  0  0
   11.1801    5.9380   -6.6618 O   0  0  0  0  0  0  0  0  0  0  0  0
   11.0775    5.7552   -8.0592 C   0  0  0  0  0  0  0  0  0  0  0  0
    8.9833    6.8003   -6.1677 C   0  0  0  0  0  0  0  0  0  0  0  0
    8.2271    7.7611   -5.5351 C   0  0  0  0  0  0  0  0  0  0  0  0
    6.7770    7.5811   -5.7297 C   0  0  0  0  0  0  0  0  0  0  0  0
    6.4681    6.8475   -6.7314 O   0  0  0  0  0  0  0  0  0  0  0  0
    5.6548    8.0746   -5.0060 N   0  0  0  0  0  0  0  0  0  0  0  0
    4.3470    7.7251   -5.5405 C   0  0  0  0  0  0  0  0  0  0  0  0
    3.7424    6.5111   -4.9300 C   0  0  1  0  0  0  0  0  0  0  0  0
    3.0379    6.9543   -3.7996 F   0  0  0  0  0  0  0  0  0  0  0  0
    2.7744    5.9283   -5.7340 F   0  0  0  0  0  0  0  0  0  0  0  0
  1  2  1  6
  2  3  1  0
  3  4  2  0
  5  3  1  6
  5  6  1  0
  6  7  1  0
  7  8  2  0
  7  9  1  0
  9 10  1  0
 10 11  2  0
 11 12  1  0
 12 13  1  0
 14 13  1  1
 12 15  2  0
 15 16  1  0
 17 16  1  6
 15 18  1  0
 18 19  2  0
 19 20  1  0
 20 21  2  0
 20 22  1  0
 23 22  1  1
 23 24  1  0
 24 25  1  1
 24 26  1  0
  6 22  1  6
 19 10  1  0
M  END
$$$$
