_rank9
     RDKit          3D

 26 27  0  0  0  0  0  0  0  0999 V2000
    1.3663    9.9160   -3.1782 C   0  0  0  0  0  0  0  0  0  0  0  0
    2.5629    9.5332   -2.4558 N   0  0  0  0  0  0  0  0  0  0  0  0
    3.8104    9.2789   -3.1021 C   0  0  0  0  0  0  0  0  0  0  0  0
    3.7537    8.9086   -4.3000 O   0  0  0  0  0  0  0  0  0  0  0  0
    5.1178    9.4355   -2.4200 C   0  0  0  0  0  0  0  0  0  0  0  0
    6.1183    8.5613   -3.1262 C   0  0  2  0  0  0  0  0  0  0  0  0
    7.3582    9.3190   -3.4354 C   0  0  0  0  0  0  0  0  0  0  0  0
    7.3036   10.5859   -3.2321 O   0  0  0  0  0  0  0  0  0  0  0  0
    8.5939    8.8122   -3.9273 N   0  0  0  0  0  0  0  0  0  0  0  0
    8.7939    7.6490   -4.7215 C   0  0  0  0  0  0  0  0  0  0  0  0
   10.1058    7.3505   -4.8806 C   0  0  0  0  0  0  0  0  0  0  0  0
   10.4328    6.2381   -5.6373 C   0  0  0  0  0  0  0  0  0  0  0  0
   11.7561    5.9168   -5.8118 O   0  0  0  0  0  0  0  0  0  0  0  0
   12.5786    6.7495   -6.5964 C   0  0  0  0  0  0  0  0  0  0  0  0
    9.4312    5.4512   -6.2168 C   0  0  0  0  0  0  0  0  0  0  0  0
    9.8369    4.3515   -6.9620 O   0  0  0  0  0  0  0  0  0  0  0  0
    9.4518    3.0644   -6.5239 C   0  0  0  0  0  0  0  0  0  0  0  0
    8.1093    5.7637   -6.0484 C   0  0  0  0  0  0  0  0  0  0  0  0
    7.7908    6.8709   -5.2949 C   0  0  0  0  0  0  0  0  0  0  0  0
    6.3390    7.1023   -5.1862 C   0  0  0  0  0  0  0  0  0  0  0  0
    5.6446    6.5188   -6.0887 O   0  0  0  0  0  0  0  0  0  0  0  0
    5.5660    7.8573   -4.2593 N   0  0  0  0  0  0  0  0  0  0  0  0
    4.1328    7.8993   -4.5088 C   0  0  0  0  0  0  0  0  0  0  0  0
    3.3421    6.9423   -3.6897 C   0  0  1  0  0  0  0  0  0  0  0  0
    3.9654    5.6937   -3.8410 F   0  0  0  0  0  0  0  0  0  0  0  0
    3.4190    7.2045   -2.3301 F   0  0  0  0  0  0  0  0  0  0  0  0
  1  2  1  6
  2  3  1  0
  3  4  2  0
  5  3  1  6
  5  6  1  0
  6  7  1  0
  7  8  2  0
  7  9  1  0
  9 10  1  0
 10 11  2  0
 11 12  1  0
 12 13  1  0
 14 13  1  1
 12 15  2  0
 15 16  1  0
 17 16  1  6
 15 18  1  0
 18 19  2  0
 19 20  1  0
 20 21  2  0
 20 22  1  0
 23 22  1  1
 23 24  1  0
 24 25  1  1
 24 26  1  0
  6 22  1  6
 19 10  1  0
M  END
$$$$
