_rank4
     RDKit          3D

 26 27  0  0  0  0  0  0  0  0999 V2000
    4.8098   11.9231   -1.8378 C   0  0  0  0  0  0  0  0  0  0  0  0
    4.1555   10.6307   -1.8804 N   0  0  0  0  0  0  0  0  0  0  0  0
    4.5652    9.5832   -2.7599 C   0  0  0  0  0  0  0  0  0  0  0  0
    5.2381    9.9264   -3.7623 O   0  0  0  0  0  0  0  0  0  0  0  0
    4.2287    8.1578   -2.5270 C   0  0  0  0  0  0  0  0  0  0  0  0
    5.0191    7.3281   -3.5020 C   0  0  2  0  0  0  0  0  0  0  0  0
    6.4748    7.4246   -3.2210 C   0  0  0  0  0  0  0  0  0  0  0  0
    6.8187    8.3085   -2.3552 O   0  0  0  0  0  0  0  0  0  0  0  0
    7.5292    6.6587   -3.7931 N   0  0  0  0  0  0  0  0  0  0  0  0
    7.5512    6.0449   -5.0762 C   0  0  0  0  0  0  0  0  0  0  0  0
    8.6335    5.2489   -5.2504 C   0  0  0  0  0  0  0  0  0  0  0  0
    8.7712    4.5941   -6.4626 C   0  0  0  0  0  0  0  0  0  0  0  0
    9.8604    3.7822   -6.6611 O   0  0  0  0  0  0  0  0  0  0  0  0
    9.8752    2.4868   -6.1069 C   0  0  0  0  0  0  0  0  0  0  0  0
    7.8157    4.7556   -7.4721 C   0  0  0  0  0  0  0  0  0  0  0  0
    8.0223    4.0665   -8.6603 O   0  0  0  0  0  0  0  0  0  0  0  0
    7.0007    3.2077   -9.1248 C   0  0  0  0  0  0  0  0  0  0  0  0
    6.7266    5.5629   -7.2834 C   0  0  0  0  0  0  0  0  0  0  0  0
    6.5955    6.2111   -6.0761 C   0  0  0  0  0  0  0  0  0  0  0  0
    5.3849    7.0481   -5.9938 C   0  0  0  0  0  0  0  0  0  0  0  0
    4.8801    7.3553   -7.1287 O   0  0  0  0  0  0  0  0  0  0  0  0
    4.6726    7.5784   -4.8811 N   0  0  0  0  0  0  0  0  0  0  0  0
    3.5317    8.4246   -5.1984 C   0  0  0  0  0  0  0  0  0  0  0  0
    2.2120    7.7619   -5.0214 C   0  0  1  0  0  0  0  0  0  0  0  0
    1.8088    8.0439   -3.7067 F   0  0  0  0  0  0  0  0  0  0  0  0
    1.2191    8.3175   -5.8142 F   0  0  0  0  0  0  0  0  0  0  0  0
  1  2  1  6
  2  3  1  0
  3  4  2  0
  5  3  1  6
  5  6  1  0
  6  7  1  0
  7  8  2  0
  7  9  1  0
  9 10  1  0
 10 11  2  0
 11 12  1  0
 12 13  1  0
 14 13  1  1
 12 15  2  0
 15 16  1  0
 17 16  1  6
 15 18  1  0
 18 19  2  0
 19 20  1  0
 20 21  2  0
 20 22  1  0
 23 22  1  1
 23 24  1  0
 24 25  1  1
 24 26  1  0
  6 22  1  6
 19 10  1  0
M  END
$$$$
