_rank7
     RDKit          3D

 26 27  0  0  0  0  0  0  0  0999 V2000
    6.7310   12.1066   -0.8407 C   0  0  0  0  0  0  0  0  0  0  0  0
    6.8092   11.2407   -2.0002 N   0  0  0  0  0  0  0  0  0  0  0  0
    6.6106    9.8287   -1.9278 C   0  0  0  0  0  0  0  0  0  0  0  0
    7.5724    9.1509   -1.4910 O   0  0  0  0  0  0  0  0  0  0  0  0
    5.3470    9.1706   -2.3393 C   0  0  0  0  0  0  0  0  0  0  0  0
    5.6993    7.9603   -3.1610 C   0  0  2  0  0  0  0  0  0  0  0  0
    7.1726    7.7898   -3.2477 C   0  0  0  0  0  0  0  0  0  0  0  0
    7.8750    8.7631   -2.7912 O   0  0  0  0  0  0  0  0  0  0  0  0
    7.8960    6.6824   -3.7731 N   0  0  0  0  0  0  0  0  0  0  0  0
    7.4682    5.7718   -4.7788 C   0  0  0  0  0  0  0  0  0  0  0  0
    8.3228    4.7318   -4.9325 C   0  0  0  0  0  0  0  0  0  0  0  0
    8.0179    3.7744   -5.8850 C   0  0  0  0  0  0  0  0  0  0  0  0
    8.8698    2.7118   -6.0578 O   0  0  0  0  0  0  0  0  0  0  0  0
    9.0369    1.7755   -5.0182 C   0  0  0  0  0  0  0  0  0  0  0  0
    6.8591    3.8859   -6.6616 C   0  0  0  0  0  0  0  0  0  0  0  0
    6.6207    2.8866   -7.5964 O   0  0  0  0  0  0  0  0  0  0  0  0
    5.6130    3.0989   -8.5641 C   0  0  0  0  0  0  0  0  0  0  0  0
    6.0038    4.9417   -6.4965 C   0  0  0  0  0  0  0  0  0  0  0  0
    6.3126    5.8901   -5.5477 C   0  0  0  0  0  0  0  0  0  0  0  0
    5.3175    6.9744   -5.4639 C   0  0  0  0  0  0  0  0  0  0  0  0
    4.5745    7.0872   -6.4995 O   0  0  0  0  0  0  0  0  0  0  0  0
    5.0304    7.9209   -4.4400 N   0  0  0  0  0  0  0  0  0  0  0  0
    3.9931    8.8952   -4.7444 C   0  0  0  0  0  0  0  0  0  0  0  0
    2.7048    8.6557   -4.0406 C   0  0  1  0  0  0  0  0  0  0  0  0
    2.5592    9.7110   -3.1265 F   0  0  0  0  0  0  0  0  0  0  0  0
    1.6045    8.7685   -4.8770 F   0  0  0  0  0  0  0  0  0  0  0  0
  1  2  1  6
  2  3  1  0
  3  4  2  0
  5  3  1  6
  5  6  1  0
  6  7  1  0
  7  8  2  0
  7  9  1  0
  9 10  1  0
 10 11  2  0
 11 12  1  0
 12 13  1  0
 14 13  1  1
 12 15  2  0
 15 16  1  0
 17 16  1  6
 15 18  1  0
 18 19  2  0
 19 20  1  0
 20 21  2  0
 20 22  1  0
 23 22  1  1
 23 24  1  0
 24 25  1  1
 24 26  1  0
  6 22  1  6
 19 10  1  0
M  END
$$$$
