_rank2
     RDKit          3D

 26 27  0  0  0  0  0  0  0  0999 V2000
    3.0972    5.5781   -3.7309 C   0  0  0  0  0  0  0  0  0  0  0  0
    2.9225    6.9656   -3.3508 N   0  0  0  0  0  0  0  0  0  0  0  0
    3.7284    8.0205   -3.8764 C   0  0  0  0  0  0  0  0  0  0  0  0
    3.7200    8.1617   -5.1236 O   0  0  0  0  0  0  0  0  0  0  0  0
    4.5418    8.9166   -3.0195 C   0  0  0  0  0  0  0  0  0  0  0  0
    5.9275    8.9854   -3.6019 C   0  0  2  0  0  0  0  0  0  0  0  0
    6.3744    7.6461   -4.0643 C   0  0  0  0  0  0  0  0  0  0  0  0
    5.6201    6.6609   -3.7334 O   0  0  0  0  0  0  0  0  0  0  0  0
    7.5325    7.3250   -4.8267 N   0  0  0  0  0  0  0  0  0  0  0  0
    8.7617    8.0398   -4.8705 C   0  0  0  0  0  0  0  0  0  0  0  0
    9.6020    7.5663   -5.8219 C   0  0  0  0  0  0  0  0  0  0  0  0
   10.8356    8.1788   -5.9638 C   0  0  0  0  0  0  0  0  0  0  0  0
   11.7031    7.7154   -6.9216 O   0  0  0  0  0  0  0  0  0  0  0  0
   12.3739    6.4924   -6.7222 C   0  0  0  0  0  0  0  0  0  0  0  0
   11.1952    9.2546   -5.1443 C   0  0  0  0  0  0  0  0  0  0  0  0
   12.4490    9.8172   -5.3460 O   0  0  0  0  0  0  0  0  0  0  0  0
   12.8289   10.9164   -4.5433 C   0  0  0  0  0  0  0  0  0  0  0  0
   10.3369    9.7236   -4.1867 C   0  0  0  0  0  0  0  0  0  0  0  0
    9.1120    9.1103   -4.0507 C   0  0  0  0  0  0  0  0  0  0  0  0
    8.2790    9.7041   -2.9894 C   0  0  0  0  0  0  0  0  0  0  0  0
    8.9328   10.3902   -2.1299 O   0  0  0  0  0  0  0  0  0  0  0  0
    6.8774    9.6544   -2.7448 N   0  0  0  0  0  0  0  0  0  0  0  0
    6.4154   10.3304   -1.5415 C   0  0  0  0  0  0  0  0  0  0  0  0
    6.6552   11.7982   -1.5355 C   0  0  1  0  0  0  0  0  0  0  0  0
    5.8656   12.3253   -2.5695 F   0  0  0  0  0  0  0  0  0  0  0  0
    6.1811   12.4172   -0.3887 F   0  0  0  0  0  0  0  0  0  0  0  0
  1  2  1  6
  2  3  1  0
  3  4  2  0
  5  3  1  6
  5  6  1  0
  6  7  1  0
  7  8  2  0
  7  9  1  0
  9 10  1  0
 10 11  2  0
 11 12  1  0
 12 13  1  0
 14 13  1  1
 12 15  2  0
 15 16  1  0
 17 16  1  6
 15 18  1  0
 18 19  2  0
 19 20  1  0
 20 21  2  0
 20 22  1  0
 23 22  1  1
 23 24  1  0
 24 25  1  6
 24 26  1  0
  6 22  1  1
 19 10  1  0
M  END
$$$$
