_rank3
     RDKit          3D

 26 27  0  0  0  0  0  0  0  0999 V2000
    3.7828   11.7500   -0.6687 C   0  0  0  0  0  0  0  0  0  0  0  0
    3.8308   10.6837   -1.6489 N   0  0  0  0  0  0  0  0  0  0  0  0
    4.6052   10.7653   -2.8456 C   0  0  0  0  0  0  0  0  0  0  0  0
    3.9641   10.8506   -3.9212 O   0  0  0  0  0  0  0  0  0  0  0  0
    6.0881   10.7522   -2.8482 C   0  0  0  0  0  0  0  0  0  0  0  0
    6.5414    9.5964   -3.6983 C   0  0  2  0  0  0  0  0  0  0  0  0
    6.0109    8.3123   -3.1723 C   0  0  0  0  0  0  0  0  0  0  0  0
    5.4387    8.3731   -2.0242 O   0  0  0  0  0  0  0  0  0  0  0  0
    6.0601    7.0285   -3.7850 N   0  0  0  0  0  0  0  0  0  0  0  0
    7.0295    6.5511   -4.7102 C   0  0  0  0  0  0  0  0  0  0  0  0
    6.6971    5.3458   -5.2319 C   0  0  0  0  0  0  0  0  0  0  0  0
    7.5633    4.7716   -6.1468 C   0  0  0  0  0  0  0  0  0  0  0  0
    7.2465    3.5505   -6.6884 O   0  0  0  0  0  0  0  0  0  0  0  0
    7.2015    2.4109   -5.8609 C   0  0  0  0  0  0  0  0  0  0  0  0
    8.7449    5.4243   -6.5157 C   0  0  0  0  0  0  0  0  0  0  0  0
    9.5632    4.7859   -7.4388 O   0  0  0  0  0  0  0  0  0  0  0  0
   10.7132    4.1147   -6.9656 C   0  0  0  0  0  0  0  0  0  0  0  0
    9.0692    6.6419   -5.9812 C   0  0  0  0  0  0  0  0  0  0  0  0
    8.2037    7.2074   -5.0721 C   0  0  0  0  0  0  0  0  0  0  0  0
    8.6612    8.5155   -4.5697 C   0  0  0  0  0  0  0  0  0  0  0  0
    9.9124    8.7313   -4.7282 O   0  0  0  0  0  0  0  0  0  0  0  0
    7.9649    9.5854   -3.9395 N   0  0  0  0  0  0  0  0  0  0  0  0
    8.7779   10.7188   -3.5239 C   0  0  0  0  0  0  0  0  0  0  0  0
    9.1092   10.7337   -2.0740 C   0  0  1  0  0  0  0  0  0  0  0  0
    9.9676   11.8277   -1.8827 F   0  0  0  0  0  0  0  0  0  0  0  0
    8.0116   11.0113   -1.2732 F   0  0  0  0  0  0  0  0  0  0  0  0
  1  2  1  6
  2  3  1  0
  3  4  2  0
  5  3  1  6
  5  6  1  0
  6  7  1  0
  7  8  2  0
  7  9  1  0
  9 10  1  0
 10 11  2  0
 11 12  1  0
 12 13  1  0
 14 13  1  1
 12 15  2  0
 15 16  1  0
 17 16  1  6
 15 18  1  0
 18 19  2  0
 19 20  1  0
 20 21  2  0
 20 22  1  0
 23 22  1  1
 23 24  1  0
 24 25  1  6
 24 26  1  0
  6 22  1  1
 19 10  1  0
M  END
$$$$
