_rank5
     RDKit          3D

 26 27  0  0  0  0  0  0  0  0999 V2000
    6.5901   11.5868    0.1285 C   0  0  0  0  0  0  0  0  0  0  0  0
    5.8193   11.3925   -1.0833 N   0  0  0  0  0  0  0  0  0  0  0  0
    5.7741   10.1481   -1.7818 C   0  0  0  0  0  0  0  0  0  0  0  0
    6.2684    9.1573   -1.1908 O   0  0  0  0  0  0  0  0  0  0  0  0
    5.1815   10.0040   -3.1335 C   0  0  0  0  0  0  0  0  0  0  0  0
    5.6526    8.6968   -3.7109 C   0  0  2  0  0  0  0  0  0  0  0  0
    7.0573    8.8023   -4.1831 C   0  0  0  0  0  0  0  0  0  0  0  0
    7.5540    9.9865   -4.1972 O   0  0  0  0  0  0  0  0  0  0  0  0
    7.9149    7.7536   -4.6194 N   0  0  0  0  0  0  0  0  0  0  0  0
    7.5335    6.5167   -5.2093 C   0  0  0  0  0  0  0  0  0  0  0  0
    8.5799    5.6688   -5.3558 C   0  0  0  0  0  0  0  0  0  0  0  0
    8.3381    4.4284   -5.9215 C   0  0  0  0  0  0  0  0  0  0  0  0
    9.3839    3.5531   -6.0795 O   0  0  0  0  0  0  0  0  0  0  0  0
   10.5040    3.6436   -5.2294 C   0  0  0  0  0  0  0  0  0  0  0  0
    7.0477    4.0697   -6.3270 C   0  0  0  0  0  0  0  0  0  0  0  0
    6.8835    2.8088   -6.8859 O   0  0  0  0  0  0  0  0  0  0  0  0
    6.5965    2.7184   -8.2666 C   0  0  0  0  0  0  0  0  0  0  0  0
    5.9989    4.9357   -6.1734 C   0  0  0  0  0  0  0  0  0  0  0  0
    6.2459    6.1673   -5.6103 C   0  0  0  0  0  0  0  0  0  0  0  0
    5.0401    7.0077   -5.4977 C   0  0  0  0  0  0  0  0  0  0  0  0
    4.0795    6.6543   -6.2655 O   0  0  0  0  0  0  0  0  0  0  0  0
    4.7473    8.1426   -4.6897 N   0  0  0  0  0  0  0  0  0  0  0  0
    3.4437    8.7552   -4.8982 C   0  0  0  0  0  0  0  0  0  0  0  0
    2.3053    7.9691   -4.3521 C   0  0  1  0  0  0  0  0  0  0  0  0
    1.1530    8.7324   -4.5970 F   0  0  0  0  0  0  0  0  0  0  0  0
    2.0884    6.7850   -5.0405 F   0  0  0  0  0  0  0  0  0  0  0  0
  1  2  1  6
  2  3  1  0
  3  4  2  0
  5  3  1  6
  5  6  1  0
  6  7  1  0
  7  8  2  0
  7  9  1  0
  9 10  1  0
 10 11  2  0
 11 12  1  0
 12 13  1  0
 14 13  1  1
 12 15  2  0
 15 16  1  0
 17 16  1  6
 15 18  1  0
 18 19  2  0
 19 20  1  0
 20 21  2  0
 20 22  1  0
 23 22  1  1
 23 24  1  0
 24 25  1  6
 24 26  1  0
  6 22  1  6
 19 10  1  0
M  END
$$$$
