MODEL 5
REMARK VINA RESULT:    -5.152      2.591      4.141
REMARK INTER + INTRA:          -8.811
REMARK INTER:                  -7.995
REMARK INTRA:                  -0.816
REMARK UNBOUND:                -1.250
REMARK  Name = /tmp/tmpslasqq9g/ligand_0.pdb
REMARK  11 active torsions:
REMARK  status: ('A' for Active; 'I' for Inactive)
REMARK    1  A    between atoms: C_1  and  C_2
REMARK    2  A    between atoms: C_2  and  N_3
REMARK    3  A    between atoms: N_3  and  C_4
REMARK    4  A    between atoms: N_3  and  C_6
REMARK    5  A    between atoms: C_4  and  C_5
REMARK    6  A    between atoms: C_6  and  C_7
REMARK    7  A    between atoms: C_7  and  C_8
REMARK    8  A    between atoms: C_8  and  C_9
REMARK    9  A    between atoms: C_9  and  C_10
REMARK   10  A    between atoms: C_9  and  N_11
REMARK   11  A    between atoms: N_11  and  C_12
REMARK                            x       y       z     vdW  Elec       q    Type
REMARK                         _______ _______ _______ _____ _____    ______ ____
ROOT
ATOM      1  N   UNL     1      44.525  52.667  31.292  0.00  0.00    +0.000 N 
ATOM      2  H   UNL     1      44.856  51.803  31.716  0.00  0.00    +0.000 HD
ENDROOT
BRANCH   1   3
ATOM      3  C   UNL     1      44.598  53.774  32.173  0.00  0.00    +0.000 A 
ATOM      4  C   UNL     1      43.422  54.328  32.773  0.00  0.00    +0.000 A 
ATOM      5  C   UNL     1      42.102  53.849  32.581  0.00  0.00    +0.000 A 
ATOM      6  C   UNL     1      41.006  54.471  33.192  0.00  0.00    +0.000 A 
ATOM      7  C   UNL     1      41.203  55.577  34.002  0.00  0.00    +0.000 A 
ATOM      8  C   UNL     1      42.491  56.064  34.207  0.00  0.00    +0.000 A 
ATOM      9  C   UNL     1      43.585  55.468  33.605  0.00  0.00    +0.000 A 
ATOM     10  N   UNL     1      44.769  56.040  33.853  0.00  0.00    +0.000 NA
ATOM     11  C   UNL     1      45.847  55.531  33.241  0.00  0.00    +0.000 A 
ATOM     12  C   UNL     1      45.803  54.443  32.397  0.00  0.00    +0.000 A 
ATOM     13 CL   UNL     1      39.870  56.364  34.744  0.00  0.00    +0.000 Cl
ENDBRANCH   1   3
BRANCH   1  14
ATOM     14  C   UNL     1      44.840  52.816  29.858  0.00  0.00    +0.000 C 
ATOM     15  C   UNL     1      43.755  53.692  29.218  0.00  0.00    +0.000 C 
BRANCH  14  16
ATOM     16  C   UNL     1      44.943  51.452  29.148  0.00  0.00    +0.000 C 
BRANCH  16  17
ATOM     17  C   UNL     1      43.580  50.765  28.889  0.00  0.00    +0.000 C 
BRANCH  17  18
ATOM     18  C   UNL     1      43.229  50.454  27.414  0.00  0.00    +0.000 C 
BRANCH  18  19
ATOM     19  N   UNL     1      41.858  49.969  27.196  0.00  0.00    +0.000 NA
BRANCH  19  21
ATOM     20  C   UNL     1      41.784  52.032  25.785  0.00  0.00    +0.000 C 
ATOM     21  C   UNL     1      41.195  50.654  26.073  0.00  0.00    +0.000 C 
ENDBRANCH  19  21
BRANCH  19  22
ATOM     22  C   UNL     1      41.791  48.497  27.102  0.00  0.00    +0.000 C 
ATOM     23  C   UNL     1      40.423  47.836  27.266  0.00  0.00    +0.000 C 
ENDBRANCH  19  22
ENDBRANCH  18  19
ENDBRANCH  17  18
ENDBRANCH  16  17
ENDBRANCH  14  16
ENDBRANCH   1  14
TORSDOF 8
ENDMDL
