MODEL 1
REMARK VINA RESULT:    -5.532      0.000      0.000
REMARK INTER + INTRA:          -9.369
REMARK INTER:                  -8.119
REMARK INTRA:                  -1.250
REMARK UNBOUND:                -1.250
REMARK  Name = /tmp/tmpslasqq9g/ligand_0.pdb
REMARK  11 active torsions:
REMARK  status: ('A' for Active; 'I' for Inactive)
REMARK    1  A    between atoms: C_1  and  C_2
REMARK    2  A    between atoms: C_2  and  N_3
REMARK    3  A    between atoms: N_3  and  C_4
REMARK    4  A    between atoms: N_3  and  C_6
REMARK    5  A    between atoms: C_4  and  C_5
REMARK    6  A    between atoms: C_6  and  C_7
REMARK    7  A    between atoms: C_7  and  C_8
REMARK    8  A    between atoms: C_8  and  C_9
REMARK    9  A    between atoms: C_9  and  C_10
REMARK   10  A    between atoms: C_9  and  N_11
REMARK   11  A    between atoms: N_11  and  C_12
REMARK                            x       y       z     vdW  Elec       q    Type
REMARK                         _______ _______ _______ _____ _____    ______ ____
ROOT
ATOM      1  N   UNL     1      43.996  52.719  30.463  0.00  0.00    +0.000 N 
ATOM      2  H   UNL     1      43.999  51.706  30.560  0.00  0.00    +0.000 HD
ENDROOT
BRANCH   1   3
ATOM      3  C   UNL     1      44.131  53.390  31.704  0.00  0.00    +0.000 A 
ATOM      4  C   UNL     1      43.036  54.105  32.287  0.00  0.00    +0.000 A 
ATOM      5  C   UNL     1      41.737  54.211  31.728  0.00  0.00    +0.000 A 
ATOM      6  C   UNL     1      40.732  54.954  32.359  0.00  0.00    +0.000 A 
ATOM      7  C   UNL     1      41.000  55.603  33.554  0.00  0.00    +0.000 A 
ATOM      8  C   UNL     1      42.267  55.510  34.122  0.00  0.00    +0.000 A 
ATOM      9  C   UNL     1      43.275  54.788  33.509  0.00  0.00    +0.000 A 
ATOM     10  N   UNL     1      44.458  54.794  34.134  0.00  0.00    +0.000 NA
ATOM     11  C   UNL     1      45.478  54.157  33.543  0.00  0.00    +0.000 A 
ATOM     12  C   UNL     1      45.366  53.481  32.348  0.00  0.00    +0.000 A 
ATOM     13 CL   UNL     1      39.785  56.533  34.333  0.00  0.00    +0.000 Cl
ENDBRANCH   1   3
BRANCH   1  14
ATOM     14  C   UNL     1      44.662  53.229  29.249  0.00  0.00    +0.000 C 
ATOM     15  C   UNL     1      43.581  53.737  28.287  0.00  0.00    +0.000 C 
BRANCH  14  16
ATOM     16  C   UNL     1      45.540  52.153  28.581  0.00  0.00    +0.000 C 
BRANCH  16  17
ATOM     17  C   UNL     1      45.625  50.822  29.368  0.00  0.00    +0.000 C 
BRANCH  17  18
ATOM     18  C   UNL     1      46.976  50.507  30.054  0.00  0.00    +0.000 C 
BRANCH  18  19
ATOM     19  N   UNL     1      48.103  51.341  29.609  0.00  0.00    +0.000 NA
BRANCH  19  21
ATOM     20  C   UNL     1      48.577  53.721  30.209  0.00  0.00    +0.000 C 
ATOM     21  C   UNL     1      48.565  52.263  30.660  0.00  0.00    +0.000 C 
ENDBRANCH  19  21
BRANCH  19  22
ATOM     22  C   UNL     1      49.193  50.540  29.015  0.00  0.00    +0.000 C 
ATOM     23  C   UNL     1      49.219  49.042  29.318  0.00  0.00    +0.000 C 
ENDBRANCH  19  22
ENDBRANCH  18  19
ENDBRANCH  17  18
ENDBRANCH  16  17
ENDBRANCH  14  16
ENDBRANCH   1  14
TORSDOF 8
ENDMDL
