MODEL 2
REMARK VINA RESULT:    -5.461      2.329      3.328
REMARK INTER + INTRA:          -9.265
REMARK INTER:                  -7.766
REMARK INTRA:                  -1.499
REMARK UNBOUND:                -1.250
REMARK  Name = /tmp/tmpslasqq9g/ligand_0.pdb
REMARK  11 active torsions:
REMARK  status: ('A' for Active; 'I' for Inactive)
REMARK    1  A    between atoms: C_1  and  C_2
REMARK    2  A    between atoms: C_2  and  N_3
REMARK    3  A    between atoms: N_3  and  C_4
REMARK    4  A    between atoms: N_3  and  C_6
REMARK    5  A    between atoms: C_4  and  C_5
REMARK    6  A    between atoms: C_6  and  C_7
REMARK    7  A    between atoms: C_7  and  C_8
REMARK    8  A    between atoms: C_8  and  C_9
REMARK    9  A    between atoms: C_9  and  C_10
REMARK   10  A    between atoms: C_9  and  N_11
REMARK   11  A    between atoms: N_11  and  C_12
REMARK                            x       y       z     vdW  Elec       q    Type
REMARK                         _______ _______ _______ _____ _____    ______ ____
ROOT
ATOM      1  N   UNL     1      42.933  53.541  29.221  0.00  0.00    +0.000 N 
ATOM      2  H   UNL     1      42.792  52.562  28.981  0.00  0.00    +0.000 HD
ENDROOT
BRANCH   1   3
ATOM      3  C   UNL     1      43.299  53.727  30.577  0.00  0.00    +0.000 A 
ATOM      4  C   UNL     1      42.402  54.331  31.515  0.00  0.00    +0.000 A 
ATOM      5  C   UNL     1      41.090  54.781  31.220  0.00  0.00    +0.000 A 
ATOM      6  C   UNL     1      40.290  55.383  32.199  0.00  0.00    +0.000 A 
ATOM      7  C   UNL     1      40.779  55.548  33.485  0.00  0.00    +0.000 A 
ATOM      8  C   UNL     1      42.063  55.110  33.799  0.00  0.00    +0.000 A 
ATOM      9  C   UNL     1      42.871  54.520  32.843  0.00  0.00    +0.000 A 
ATOM     10  N   UNL     1      44.094  54.166  33.253  0.00  0.00    +0.000 NA
ATOM     11  C   UNL     1      44.931  53.647  32.344  0.00  0.00    +0.000 A 
ATOM     12  C   UNL     1      44.589  53.439  31.025  0.00  0.00    +0.000 A 
ATOM     13 CL   UNL     1      39.820  56.300  34.694  0.00  0.00    +0.000 Cl
ENDBRANCH   1   3
BRANCH   1  14
ATOM     14  C   UNL     1      43.534  54.363  28.153  0.00  0.00    +0.000 C 
ATOM     15  C   UNL     1      42.538  55.468  27.781  0.00  0.00    +0.000 C 
BRANCH  14  16
ATOM     16  C   UNL     1      43.912  53.517  26.922  0.00  0.00    +0.000 C 
BRANCH  16  17
ATOM     17  C   UNL     1      45.354  52.954  26.953  0.00  0.00    +0.000 C 
BRANCH  17  18
ATOM     18  C   UNL     1      45.526  51.514  27.494  0.00  0.00    +0.000 C 
BRANCH  18  19
ATOM     19  N   UNL     1      44.269  50.782  27.708  0.00  0.00    +0.000 NA
BRANCH  19  21
ATOM     20  C   UNL     1      42.976  50.198  25.650  0.00  0.00    +0.000 C 
ATOM     21  C   UNL     1      44.028  49.768  26.668  0.00  0.00    +0.000 C 
ENDBRANCH  19  21
BRANCH  19  22
ATOM     22  C   UNL     1      44.158  50.247  29.081  0.00  0.00    +0.000 C 
ATOM     23  C   UNL     1      42.779  49.788  29.555  0.00  0.00    +0.000 C 
ENDBRANCH  19  22
ENDBRANCH  18  19
ENDBRANCH  17  18
ENDBRANCH  16  17
ENDBRANCH  14  16
ENDBRANCH   1  14
TORSDOF 8
ENDMDL
