MODEL 4
REMARK VINA RESULT:    -5.285     39.138     41.682
REMARK INTER + INTRA:          -9.006
REMARK INTER:                  -8.092
REMARK INTRA:                  -0.913
REMARK UNBOUND:                -1.250
REMARK  Name = /tmp/tmpslasqq9g/ligand_0.pdb
REMARK  11 active torsions:
REMARK  status: ('A' for Active; 'I' for Inactive)
REMARK    1  A    between atoms: C_1  and  C_2
REMARK    2  A    between atoms: C_2  and  N_3
REMARK    3  A    between atoms: N_3  and  C_4
REMARK    4  A    between atoms: N_3  and  C_6
REMARK    5  A    between atoms: C_4  and  C_5
REMARK    6  A    between atoms: C_6  and  C_7
REMARK    7  A    between atoms: C_7  and  C_8
REMARK    8  A    between atoms: C_8  and  C_9
REMARK    9  A    between atoms: C_9  and  C_10
REMARK   10  A    between atoms: C_9  and  N_11
REMARK   11  A    between atoms: N_11  and  C_12
REMARK                            x       y       z     vdW  Elec       q    Type
REMARK                         _______ _______ _______ _____ _____    ______ ____
ROOT
ATOM      1  N   UNL     1      12.273  67.533  11.464  0.00  0.00    +0.000 N 
ATOM      2  H   UNL     1      11.412  67.197  11.889  0.00  0.00    +0.000 HD
ENDROOT
BRANCH   1   3
ATOM      3  C   UNL     1      12.094  67.968  10.128  0.00  0.00    +0.000 A 
ATOM      4  C   UNL     1      12.790  67.345   9.042  0.00  0.00    +0.000 A 
ATOM      5  C   UNL     1      13.688  66.256   9.163  0.00  0.00    +0.000 A 
ATOM      6  C   UNL     1      14.343  65.725   8.044  0.00  0.00    +0.000 A 
ATOM      7  C   UNL     1      14.115  66.267   6.789  0.00  0.00    +0.000 A 
ATOM      8  C   UNL     1      13.235  67.336   6.647  0.00  0.00    +0.000 A 
ATOM      9  C   UNL     1      12.585  67.879   7.741  0.00  0.00    +0.000 A 
ATOM     10  N   UNL     1      11.785  68.920   7.485  0.00  0.00    +0.000 NA
ATOM     11  C   UNL     1      11.184  69.515   8.525  0.00  0.00    +0.000 A 
ATOM     12  C   UNL     1      11.327  69.096   9.830  0.00  0.00    +0.000 A 
ATOM     13 CL   UNL     1      14.923  65.642   5.409  0.00  0.00    +0.000 Cl
ENDBRANCH   1   3
BRANCH   1  14
ATOM     14  C   UNL     1      13.180  68.251  12.381  0.00  0.00    +0.000 C 
ATOM     15  C   UNL     1      14.560  67.586  12.309  0.00  0.00    +0.000 C 
BRANCH  14  16
ATOM     16  C   UNL     1      12.643  68.263  13.825  0.00  0.00    +0.000 C 
BRANCH  16  17
ATOM     17  C   UNL     1      11.172  68.729  13.954  0.00  0.00    +0.000 C 
BRANCH  17  18
ATOM     18  C   UNL     1      10.862  69.750  15.076  0.00  0.00    +0.000 C 
BRANCH  18  19
ATOM     19  N   UNL     1       9.868  69.300  16.061  0.00  0.00    +0.000 NA
BRANCH  19  21
ATOM     20  C   UNL     1       8.608  67.142  16.137  0.00  0.00    +0.000 C 
ATOM     21  C   UNL     1       8.800  68.491  15.450  0.00  0.00    +0.000 C 
ENDBRANCH  19  21
BRANCH  19  22
ATOM     22  C   UNL     1      10.493  68.652  17.233  0.00  0.00    +0.000 C 
ATOM     23  C   UNL     1      11.730  69.317  17.836  0.00  0.00    +0.000 C 
ENDBRANCH  19  22
ENDBRANCH  18  19
ENDBRANCH  17  18
ENDBRANCH  16  17
ENDBRANCH  14  16
ENDBRANCH   1  14
TORSDOF 8
ENDMDL
