MODEL 3
REMARK VINA RESULT:    -5.305      2.949      5.384
REMARK INTER + INTRA:          -9.035
REMARK INTER:                  -7.860
REMARK INTRA:                  -1.175
REMARK UNBOUND:                -1.250
REMARK  Name = /tmp/tmpslasqq9g/ligand_0.pdb
REMARK  11 active torsions:
REMARK  status: ('A' for Active; 'I' for Inactive)
REMARK    1  A    between atoms: C_1  and  C_2
REMARK    2  A    between atoms: C_2  and  N_3
REMARK    3  A    between atoms: N_3  and  C_4
REMARK    4  A    between atoms: N_3  and  C_6
REMARK    5  A    between atoms: C_4  and  C_5
REMARK    6  A    between atoms: C_6  and  C_7
REMARK    7  A    between atoms: C_7  and  C_8
REMARK    8  A    between atoms: C_8  and  C_9
REMARK    9  A    between atoms: C_9  and  C_10
REMARK   10  A    between atoms: C_9  and  N_11
REMARK   11  A    between atoms: N_11  and  C_12
REMARK                            x       y       z     vdW  Elec       q    Type
REMARK                         _______ _______ _______ _____ _____    ______ ____
ROOT
ATOM      1  N   UNL     1      42.837  53.569  29.066  0.00  0.00    +0.000 N 
ATOM      2  H   UNL     1      42.614  52.606  28.828  0.00  0.00    +0.000 HD
ENDROOT
BRANCH   1   3
ATOM      3  C   UNL     1      43.245  53.722  30.414  0.00  0.00    +0.000 A 
ATOM      4  C   UNL     1      42.387  54.326  31.388  0.00  0.00    +0.000 A 
ATOM      5  C   UNL     1      41.078  54.808  31.140  0.00  0.00    +0.000 A 
ATOM      6  C   UNL     1      40.318  55.408  32.152  0.00  0.00    +0.000 A 
ATOM      7  C   UNL     1      40.847  55.537  33.426  0.00  0.00    +0.000 A 
ATOM      8  C   UNL     1      42.130  55.068  33.695  0.00  0.00    +0.000 A 
ATOM      9  C   UNL     1      42.898  54.481  32.705  0.00  0.00    +0.000 A 
ATOM     10  N   UNL     1      44.124  54.094  33.074  0.00  0.00    +0.000 NA
ATOM     11  C   UNL     1      44.924  53.576  32.131  0.00  0.00    +0.000 A 
ATOM     12  C   UNL     1      44.541  53.400  30.819  0.00  0.00    +0.000 A 
ATOM     13 CL   UNL     1      39.938  56.286  34.676  0.00  0.00    +0.000 Cl
ENDBRANCH   1   3
BRANCH   1  14
ATOM     14  C   UNL     1      43.480  54.344  27.986  0.00  0.00    +0.000 C 
ATOM     15  C   UNL     1      42.689  55.644  27.792  0.00  0.00    +0.000 C 
BRANCH  14  16
ATOM     16  C   UNL     1      43.560  53.541  26.674  0.00  0.00    +0.000 C 
BRANCH  16  17
ATOM     17  C   UNL     1      42.433  52.494  26.498  0.00  0.00    +0.000 C 
BRANCH  17  18
ATOM     18  C   UNL     1      41.282  52.869  25.532  0.00  0.00    +0.000 C 
BRANCH  18  19
ATOM     19  N   UNL     1      41.540  54.050  24.695  0.00  0.00    +0.000 NA
BRANCH  19  21
ATOM     20  C   UNL     1      43.265  53.679  22.925  0.00  0.00    +0.000 C 
ATOM     21  C   UNL     1      41.783  53.695  23.287  0.00  0.00    +0.000 C 
ENDBRANCH  19  21
BRANCH  19  22
ATOM     22  C   UNL     1      40.508  55.094  24.864  0.00  0.00    +0.000 C 
ATOM     23  C   UNL     1      40.854  56.514  24.419  0.00  0.00    +0.000 C 
ENDBRANCH  19  22
ENDBRANCH  18  19
ENDBRANCH  17  18
ENDBRANCH  16  17
ENDBRANCH  14  16
ENDBRANCH   1  14
TORSDOF 8
ENDMDL
