REMARK  Name = /tmp/tmpslasqq9g/ligand_0.pdb
REMARK  11 active torsions:
REMARK  status: ('A' for Active; 'I' for Inactive)
REMARK    1  A    between atoms: C_1  and  C_2
REMARK    2  A    between atoms: C_2  and  N_3
REMARK    3  A    between atoms: N_3  and  C_4
REMARK    4  A    between atoms: N_3  and  C_6
REMARK    5  A    between atoms: C_4  and  C_5
REMARK    6  A    between atoms: C_6  and  C_7
REMARK    7  A    between atoms: C_7  and  C_8
REMARK    8  A    between atoms: C_8  and  C_9
REMARK    9  A    between atoms: C_9  and  C_10
REMARK   10  A    between atoms: C_9  and  N_11
REMARK   11  A    between atoms: N_11  and  C_12
REMARK                            x       y       z     vdW  Elec       q    Type
REMARK                         _______ _______ _______ _____ _____    ______ ____
ROOT
ATOM      1  N   UNL     1       3.062  -2.774   0.524  0.00  0.00    +0.000 N 
ATOM      2  H   UNL     1       2.462  -3.279   1.172  0.00  0.00    +0.000 HD
ENDROOT
BRANCH   1   3
ATOM      3  C   UNL     1       2.802  -3.096  -0.831  0.00  0.00    +0.000 A 
ATOM      4  C   UNL     1       2.519  -4.440  -1.236  0.00  0.00    +0.000 A 
ATOM      5  C   UNL     1       2.451  -5.559  -0.369  0.00  0.00    +0.000 A 
ATOM      6  C   UNL     1       2.191  -6.845  -0.859  0.00  0.00    +0.000 A 
ATOM      7  C   UNL     1       1.994  -7.039  -2.217  0.00  0.00    +0.000 A 
ATOM      8  C   UNL     1       2.053  -5.954  -3.087  0.00  0.00    +0.000 A 
ATOM      9  C   UNL     1       2.317  -4.678  -2.622  0.00  0.00    +0.000 A 
ATOM     10  N   UNL     1       2.377  -3.720  -3.554  0.00  0.00    +0.000 NA
ATOM     11  C   UNL     1       2.691  -2.480  -3.154  0.00  0.00    +0.000 A 
ATOM     12  C   UNL     1       2.928  -2.140  -1.840  0.00  0.00    +0.000 A 
ATOM     13 CL   UNL     1       1.692  -8.611  -2.839  0.00  0.00    +0.000 Cl
ENDBRANCH   1   3
BRANCH   1  14
ATOM     14  C   UNL     1       3.386  -1.391   0.926  0.00  0.00    +0.000 C 
ATOM     15  C   UNL     1       4.902  -1.197   0.796  0.00  0.00    +0.000 C 
BRANCH  14  16
ATOM     16  C   UNL     1       2.907  -1.083   2.358  0.00  0.00    +0.000 C 
BRANCH  16  17
ATOM     17  C   UNL     1       3.181   0.368   2.823  0.00  0.00    +0.000 C 
BRANCH  17  18
ATOM     18  C   UNL     1       2.572   1.500   1.961  0.00  0.00    +0.000 C 
BRANCH  18  19
ATOM     19  N   UNL     1       1.111   1.438   1.805  0.00  0.00    +0.000 NA
BRANCH  19  21
ATOM     20  C   UNL     1      -1.096   1.423   2.979  0.00  0.00    +0.000 C 
ATOM     21  C   UNL     1       0.402   1.699   3.069  0.00  0.00    +0.000 C 
ENDBRANCH  19  21
BRANCH  19  22
ATOM     22  C   UNL     1       0.631   2.272   0.684  0.00  0.00    +0.000 C 
ATOM     23  C   UNL     1       0.710   3.790   0.844  0.00  0.00    +0.000 C 
ENDBRANCH  19  22
ENDBRANCH  18  19
ENDBRANCH  17  18
ENDBRANCH  16  17
ENDBRANCH  14  16
ENDBRANCH   1  14
TORSDOF 8
