_rank5
     RDKit          3D

 24 26  0  0  0  0  0  0  0  0999 V2000
    5.4062    8.4569   -6.9020 C   0  0  0  0  0  0  0  0  0  0  0  0
    5.2287    7.7341   -5.6026 C   0  0  0  0  0  0  0  0  0  0  0  0
    5.2210    8.4055   -4.4618 C   0  0  0  0  0  0  0  0  0  0  0  0
    5.3921    9.8777   -4.5169 C   0  0  0  0  0  0  0  0  0  0  0  0
    4.9675   10.4202   -3.2105 N   0  0  0  0  0  0  0  0  0  0  0  0
    5.6881   11.4686   -2.5970 C   0  0  0  0  0  0  0  0  0  0  0  0
    6.6902   11.8901   -3.2918 O   0  0  0  0  0  0  0  0  0  0  0  0
    5.4047   12.0796   -1.3100 C   0  0  0  0  0  0  0  0  0  0  0  0
    4.8810   13.3784   -1.2913 C   0  0  0  0  0  0  0  0  0  0  0  0
    4.5940   14.0063   -0.1175 C   0  0  0  0  0  0  0  0  0  0  0  0
    4.0837   15.2712   -0.0889 F   0  0  0  0  0  0  0  0  0  0  0  0
    4.8003   13.4054    1.1093 C   0  0  0  0  0  0  0  0  0  0  0  0
    4.5167   14.0253    2.2765 F   0  0  0  0  0  0  0  0  0  0  0  0
    5.3133   12.1305    1.1270 C   0  0  0  0  0  0  0  0  0  0  0  0
    5.5982   11.5105   -0.0836 C   0  0  0  0  0  0  0  0  0  0  0  0
    6.0989   10.2622   -0.0113 F   0  0  0  0  0  0  0  0  0  0  0  0
    5.0543    7.7471   -3.2099 N   0  0  0  0  0  0  0  0  0  0  0  0
    4.8916    6.3608   -3.1361 N   0  0  0  0  0  0  0  0  0  0  0  0
    4.7198    5.5070   -2.1172 N   0  0  0  0  0  0  0  0  0  0  0  0
    4.6117    4.2504   -2.5853 C   0  0  0  0  0  0  0  0  0  0  0  0
    4.3760    2.8013   -1.6164 Cl  0  0  0  0  0  0  0  0  0  0  0  0
    4.7217    4.3546   -3.9219 N   0  0  0  0  0  0  0  0  0  0  0  0
    4.8953    5.6523   -4.2799 C   0  0  0  0  0  0  0  0  0  0  0  0
    5.0631    6.3237   -5.5267 N   0  0  0  0  0  0  0  0  0  0  0  0
  1  2  1  1
  2  3  2  0
  3  4  1  0
  4  5  1  1
  5  6  1  0
  6  7  2  0
  6  8  1  0
  8  9  2  0
  9 10  1  0
 10 11  1  0
 10 12  2  0
 12 13  1  0
 12 14  1  0
 14 15  2  0
 15 16  1  0
  3 17  1  0
 17 18  1  0
 18 19  1  0
 19 20  2  0
 20 21  1  0
 20 22  1  0
 22 23  2  0
 23 24  1  0
 24  2  1  0
 15  8  1  0
 23 18  1  0
M  END
$$$$
