_rank4
     RDKit          3D

 24 26  0  0  0  0  0  0  0  0999 V2000
    5.4229    8.0196   -5.9436 C   0  0  0  0  0  0  0  0  0  0  0  0
    5.1628    6.7925   -5.1258 C   0  0  0  0  0  0  0  0  0  0  0  0
    4.3646    6.8508   -4.0714 C   0  0  0  0  0  0  0  0  0  0  0  0
    3.7468    8.1565   -3.7347 C   0  0  0  0  0  0  0  0  0  0  0  0
    4.8405    9.0835   -3.3802 N   0  0  0  0  0  0  0  0  0  0  0  0
    5.1846    9.3089   -2.0291 C   0  0  0  0  0  0  0  0  0  0  0  0
    4.3834    8.7507   -1.1859 O   0  0  0  0  0  0  0  0  0  0  0  0
    6.3129   10.0808   -1.5379 C   0  0  0  0  0  0  0  0  0  0  0  0
    7.5941    9.7531   -1.9992 C   0  0  0  0  0  0  0  0  0  0  0  0
    8.6924   10.4385   -1.5770 C   0  0  0  0  0  0  0  0  0  0  0  0
    9.9444   10.1269   -2.0204 F   0  0  0  0  0  0  0  0  0  0  0  0
    8.6078   11.4852   -0.6792 C   0  0  0  0  0  0  0  0  0  0  0  0
    9.6955   12.1680   -0.2577 F   0  0  0  0  0  0  0  0  0  0  0  0
    7.3650   11.8330   -0.2064 C   0  0  0  0  0  0  0  0  0  0  0  0
    6.2593   11.1188   -0.6520 C   0  0  0  0  0  0  0  0  0  0  0  0
    5.0651   11.4991   -0.1586 F   0  0  0  0  0  0  0  0  0  0  0  0
    4.0973    5.7016   -3.2738 N   0  0  0  0  0  0  0  0  0  0  0  0
    4.6693    4.4621   -3.5739 N   0  0  0  0  0  0  0  0  0  0  0  0
    4.5904    3.2502   -3.0066 N   0  0  0  0  0  0  0  0  0  0  0  0
    5.3458    2.3731   -3.6920 C   0  0  0  0  0  0  0  0  0  0  0  0
    5.5487    0.6665   -3.3167 Cl  0  0  0  0  0  0  0  0  0  0  0  0
    5.8924    3.0794   -4.6979 N   0  0  0  0  0  0  0  0  0  0  0  0
    5.4849    4.3728   -4.6402 C   0  0  0  0  0  0  0  0  0  0  0  0
    5.7443    5.5311   -5.4306 N   0  0  0  0  0  0  0  0  0  0  0  0
  1  2  1  1
  2  3  2  0
  3  4  1  0
  4  5  1  1
  5  6  1  0
  6  7  2  0
  6  8  1  0
  8  9  2  0
  9 10  1  0
 10 11  1  0
 10 12  2  0
 12 13  1  0
 12 14  1  0
 14 15  2  0
 15 16  1  0
  3 17  1  0
 17 18  1  0
 18 19  1  0
 19 20  2  0
 20 21  1  0
 20 22  1  0
 22 23  2  0
 23 24  1  0
 24  2  1  0
 15  8  1  0
 23 18  1  0
M  END
$$$$
