_rank1
     RDKit          3D

 24 26  0  0  0  0  0  0  0  0999 V2000
    8.1113    8.3782   -2.4324 C   0  0  0  0  0  0  0  0  0  0  0  0
    6.8326    8.3533   -3.2112 C   0  0  0  0  0  0  0  0  0  0  0  0
    6.2295    9.4851   -3.5391 C   0  0  0  0  0  0  0  0  0  0  0  0
    6.8573   10.7596   -3.1133 C   0  0  0  0  0  0  0  0  0  0  0  0
    6.3104   11.0981   -1.7838 N   0  0  0  0  0  0  0  0  0  0  0  0
    6.0475   12.4407   -1.4333 C   0  0  0  0  0  0  0  0  0  0  0  0
    6.5828   13.3030   -2.2298 O   0  0  0  0  0  0  0  0  0  0  0  0
    5.2614   12.9048   -0.3033 C   0  0  0  0  0  0  0  0  0  0  0  0
    4.7588   11.9530    0.5928 C   0  0  0  0  0  0  0  0  0  0  0  0
    4.0150   12.3237    1.6716 C   0  0  0  0  0  0  0  0  0  0  0  0
    3.5211   11.4042    2.5501 F   0  0  0  0  0  0  0  0  0  0  0  0
    3.7162   13.6452    1.9417 C   0  0  0  0  0  0  0  0  0  0  0  0
    2.9782   14.0172    3.0113 F   0  0  0  0  0  0  0  0  0  0  0  0
    4.1939   14.6052    1.0820 C   0  0  0  0  0  0  0  0  0  0  0  0
    4.9506   14.2023   -0.0118 C   0  0  0  0  0  0  0  0  0  0  0  0
    5.3947   15.1815   -0.8231 F   0  0  0  0  0  0  0  0  0  0  0  0
    5.0126    9.4947   -4.2791 N   0  0  0  0  0  0  0  0  0  0  0  0
    4.4048    8.3050   -4.6899 N   0  0  0  0  0  0  0  0  0  0  0  0
    3.2879    8.0320   -5.3788 N   0  0  0  0  0  0  0  0  0  0  0  0
    3.1450    6.7009   -5.5115 C   0  0  0  0  0  0  0  0  0  0  0  0
    1.8293    5.8783   -6.3403 Cl  0  0  0  0  0  0  0  0  0  0  0  0
    4.2060    6.1617   -4.8846 N   0  0  0  0  0  0  0  0  0  0  0  0
    4.9954    7.1390   -4.3707 C   0  0  0  0  0  0  0  0  0  0  0  0
    6.2136    7.1433   -3.6294 N   0  0  0  0  0  0  0  0  0  0  0  0
  1  2  1  1
  2  3  2  0
  3  4  1  0
  4  5  1  1
  5  6  1  0
  6  7  2  0
  6  8  1  0
  8  9  2  0
  9 10  1  0
 10 11  1  0
 10 12  2  0
 12 13  1  0
 12 14  1  0
 14 15  2  0
 15 16  1  0
  3 17  1  0
 17 18  1  0
 18 19  1  0
 19 20  2  0
 20 21  1  0
 20 22  1  0
 22 23  2  0
 23 24  1  0
 24  2  1  0
 15  8  1  0
 23 18  1  0
M  END
$$$$
