_rank2
     RDKit          3D

 24 26  0  0  0  0  0  0  0  0999 V2000
    4.2633    5.9073   -6.5336 C   0  0  0  0  0  0  0  0  0  0  0  0
    4.3182    5.0562   -5.3028 C   0  0  0  0  0  0  0  0  0  0  0  0
    3.9672    5.5578   -4.1291 C   0  0  0  0  0  0  0  0  0  0  0  0
    3.5243    6.9724   -4.0787 C   0  0  0  0  0  0  0  0  0  0  0  0
    4.5043    7.7124   -3.2582 N   0  0  0  0  0  0  0  0  0  0  0  0
    4.6453    9.1113   -3.3913 C   0  0  0  0  0  0  0  0  0  0  0  0
    3.8946    9.6275   -4.3047 O   0  0  0  0  0  0  0  0  0  0  0  0
    5.5248    9.9723   -2.6196 C   0  0  0  0  0  0  0  0  0  0  0  0
    6.4809   10.7322   -3.3052 C   0  0  0  0  0  0  0  0  0  0  0  0
    7.3346   11.5584   -2.6397 C   0  0  0  0  0  0  0  0  0  0  0  0
    8.2692   12.3025   -3.2985 F   0  0  0  0  0  0  0  0  0  0  0  0
    7.3076   11.6936   -1.2651 C   0  0  0  0  0  0  0  0  0  0  0  0
    8.1532   12.5126   -0.6008 F   0  0  0  0  0  0  0  0  0  0  0  0
    6.3812   10.9619   -0.5611 C   0  0  0  0  0  0  0  0  0  0  0  0
    5.5209   10.1258   -1.2626 C   0  0  0  0  0  0  0  0  0  0  0  0
    4.6324    9.4310   -0.5263 F   0  0  0  0  0  0  0  0  0  0  0  0
    4.0083    4.7742   -2.9406 N   0  0  0  0  0  0  0  0  0  0  0  0
    4.4225    3.4395   -2.9665 N   0  0  0  0  0  0  0  0  0  0  0  0
    4.5532    2.4976   -2.0218 N   0  0  0  0  0  0  0  0  0  0  0  0
    4.9970    1.3536   -2.5733 C   0  0  0  0  0  0  0  0  0  0  0  0
    5.3160   -0.1514   -1.7202 Cl  0  0  0  0  0  0  0  0  0  0  0  0
    5.1361    1.6178   -3.8848 N   0  0  0  0  0  0  0  0  0  0  0  0
    4.7853    2.9028   -4.1457 C   0  0  0  0  0  0  0  0  0  0  0  0
    4.7395    3.6982   -5.3283 N   0  0  0  0  0  0  0  0  0  0  0  0
  1  2  1  1
  2  3  2  0
  3  4  1  0
  4  5  1  1
  5  6  1  0
  6  7  2  0
  6  8  1  0
  8  9  2  0
  9 10  1  0
 10 11  1  0
 10 12  2  0
 12 13  1  0
 12 14  1  0
 14 15  2  0
 15 16  1  0
  3 17  1  0
 17 18  1  0
 18 19  1  0
 19 20  2  0
 20 21  1  0
 20 22  1  0
 22 23  2  0
 23 24  1  0
 24  2  1  0
 15  8  1  0
 23 18  1  0
M  END
$$$$
