_rank9
     RDKit          3D

 24 26  0  0  0  0  0  0  0  0999 V2000
    7.8171    8.6105   -5.7109 C   0  0  0  0  0  0  0  0  0  0  0  0
    6.6381    8.1779   -4.8953 C   0  0  0  0  0  0  0  0  0  0  0  0
    6.1114    8.9967   -3.9984 C   0  0  0  0  0  0  0  0  0  0  0  0
    6.7225   10.3380   -3.8335 C   0  0  0  0  0  0  0  0  0  0  0  0
    5.9101   11.0742   -2.8438 N   0  0  0  0  0  0  0  0  0  0  0  0
    6.4628   11.4623   -1.6034 C   0  0  0  0  0  0  0  0  0  0  0  0
    7.7195   11.1954   -1.4851 O   0  0  0  0  0  0  0  0  0  0  0  0
    5.7635   12.1062   -0.5050 C   0  0  0  0  0  0  0  0  0  0  0  0
    6.0937   13.4308   -0.1918 C   0  0  0  0  0  0  0  0  0  0  0  0
    5.4745   14.0901    0.8262 C   0  0  0  0  0  0  0  0  0  0  0  0
    5.7891   15.3802    1.1390 F   0  0  0  0  0  0  0  0  0  0  0  0
    4.4957   13.4975    1.6004 C   0  0  0  0  0  0  0  0  0  0  0  0
    3.8787   14.1485    2.6117 F   0  0  0  0  0  0  0  0  0  0  0  0
    4.1474   12.1979    1.3198 C   0  0  0  0  0  0  0  0  0  0  0  0
    4.7934   11.5461    0.2762 C   0  0  0  0  0  0  0  0  0  0  0  0
    4.4157   10.2745    0.0423 F   0  0  0  0  0  0  0  0  0  0  0  0
    4.9902    8.6149   -3.2073 N   0  0  0  0  0  0  0  0  0  0  0  0
    4.3996    7.3559   -3.3472 N   0  0  0  0  0  0  0  0  0  0  0  0
    3.3634    6.7534   -2.7474 N   0  0  0  0  0  0  0  0  0  0  0  0
    3.1976    5.5170   -3.2512 C   0  0  0  0  0  0  0  0  0  0  0  0
    1.9641    4.3593   -2.7690 Cl  0  0  0  0  0  0  0  0  0  0  0  0
    4.1615    5.3752   -4.1787 N   0  0  0  0  0  0  0  0  0  0  0  0
    4.9140    6.5025   -4.2513 C   0  0  0  0  0  0  0  0  0  0  0  0
    6.0367    6.8971   -5.0370 N   0  0  0  0  0  0  0  0  0  0  0  0
  1  2  1  1
  2  3  2  0
  3  4  1  0
  4  5  1  1
  5  6  1  0
  6  7  2  0
  6  8  1  0
  8  9  2  0
  9 10  1  0
 10 11  1  0
 10 12  2  0
 12 13  1  0
 12 14  1  0
 14 15  2  0
 15 16  1  0
  3 17  1  0
 17 18  1  0
 18 19  1  0
 19 20  2  0
 20 21  1  0
 20 22  1  0
 22 23  2  0
 23 24  1  0
 24  2  1  0
 15  8  1  0
 23 18  1  0
M  END
$$$$
