_rank3
     RDKit          3D

 24 26  0  0  0  0  0  0  0  0999 V2000
    8.2877    8.8612   -4.7187 C   0  0  0  0  0  0  0  0  0  0  0  0
    6.9360    8.2403   -4.5473 C   0  0  0  0  0  0  0  0  0  0  0  0
    5.9297    8.9551   -4.0690 C   0  0  0  0  0  0  0  0  0  0  0  0
    6.1863   10.3722   -3.7146 C   0  0  0  0  0  0  0  0  0  0  0  0
    5.3413   10.6948   -2.5471 N   0  0  0  0  0  0  0  0  0  0  0  0
    5.8595   11.4434   -1.4673 C   0  0  0  0  0  0  0  0  0  0  0  0
    7.0350   11.9287   -1.6846 O   0  0  0  0  0  0  0  0  0  0  0  0
    5.2065   11.6977   -0.1949 C   0  0  0  0  0  0  0  0  0  0  0  0
    5.8606   12.5133    0.7370 C   0  0  0  0  0  0  0  0  0  0  0  0
    5.3014   12.7897    1.9475 C   0  0  0  0  0  0  0  0  0  0  0  0
    5.9306   13.5829    2.8619 F   0  0  0  0  0  0  0  0  0  0  0  0
    4.0702   12.2875    2.3224 C   0  0  0  0  0  0  0  0  0  0  0  0
    3.5118   12.5595    3.5229 F   0  0  0  0  0  0  0  0  0  0  0  0
    3.4010   11.4833    1.4312 C   0  0  0  0  0  0  0  0  0  0  0  0
    3.9920   11.2156    0.2022 C   0  0  0  0  0  0  0  0  0  0  0  0
    3.2955   10.4226   -0.6345 F   0  0  0  0  0  0  0  0  0  0  0  0
    4.6325    8.3936   -3.8944 N   0  0  0  0  0  0  0  0  0  0  0  0
    4.3697    7.0605   -4.2222 N   0  0  0  0  0  0  0  0  0  0  0  0
    3.2700    6.2968   -4.1598 N   0  0  0  0  0  0  0  0  0  0  0  0
    3.5472    5.0569   -4.6023 C   0  0  0  0  0  0  0  0  0  0  0  0
    2.4133    3.7158   -4.7028 Cl  0  0  0  0  0  0  0  0  0  0  0  0
    4.8493    5.0788   -4.9390 N   0  0  0  0  0  0  0  0  0  0  0  0
    5.3737    6.3097   -4.7105 C   0  0  0  0  0  0  0  0  0  0  0  0
    6.6678    6.8841   -4.8806 N   0  0  0  0  0  0  0  0  0  0  0  0
  1  2  1  1
  2  3  2  0
  3  4  1  0
  4  5  1  1
  5  6  1  0
  6  7  2  0
  6  8  1  0
  8  9  2  0
  9 10  1  0
 10 11  1  0
 10 12  2  0
 12 13  1  0
 12 14  1  0
 14 15  2  0
 15 16  1  0
  3 17  1  0
 17 18  1  0
 18 19  1  0
 19 20  2  0
 20 21  1  0
 20 22  1  0
 22 23  2  0
 23 24  1  0
 24  2  1  0
 15  8  1  0
 23 18  1  0
M  END
$$$$
