_rank6
     RDKit          3D

 24 26  0  0  0  0  0  0  0  0999 V2000
    3.8026    9.1858   -6.4785 C   0  0  0  0  0  0  0  0  0  0  0  0
    4.2954    8.1850   -5.4796 C   0  0  0  0  0  0  0  0  0  0  0  0
    5.0624    8.5708   -4.4720 C   0  0  0  0  0  0  0  0  0  0  0  0
    5.4104   10.0089   -4.3703 C   0  0  0  0  0  0  0  0  0  0  0  0
    6.0220   10.2218   -3.0429 N   0  0  0  0  0  0  0  0  0  0  0  0
    5.8978   11.4644   -2.3832 C   0  0  0  0  0  0  0  0  0  0  0  0
    5.4047   12.4007   -3.1212 O   0  0  0  0  0  0  0  0  0  0  0  0
    6.2628   11.7573   -1.0080 C   0  0  0  0  0  0  0  0  0  0  0  0
    5.3045   12.3524   -0.1779 C   0  0  0  0  0  0  0  0  0  0  0  0
    5.5846   12.6518    1.1207 C   0  0  0  0  0  0  0  0  0  0  0  0
    4.6580   13.2315    1.9371 F   0  0  0  0  0  0  0  0  0  0  0  0
    6.8163   12.3890    1.6884 C   0  0  0  0  0  0  0  0  0  0  0  0
    7.0983   12.6847    2.9769 F   0  0  0  0  0  0  0  0  0  0  0  0
    7.7801   11.8052    0.9013 C   0  0  0  0  0  0  0  0  0  0  0  0
    7.4705   11.5090   -0.4206 C   0  0  0  0  0  0  0  0  0  0  0  0
    8.4491   10.9380   -1.1489 F   0  0  0  0  0  0  0  0  0  0  0  0
    5.5470    7.6433   -3.5059 N   0  0  0  0  0  0  0  0  0  0  0  0
    5.2307    6.2841   -3.5836 N   0  0  0  0  0  0  0  0  0  0  0  0
    5.5437    5.2215   -2.8290 N   0  0  0  0  0  0  0  0  0  0  0  0
    4.9779    4.1133   -3.3405 C   0  0  0  0  0  0  0  0  0  0  0  0
    5.1125    2.4858   -2.6866 Cl  0  0  0  0  0  0  0  0  0  0  0  0
    4.3073    4.5237   -4.4319 N   0  0  0  0  0  0  0  0  0  0  0  0
    4.4527    5.8631   -4.5973 C   0  0  0  0  0  0  0  0  0  0  0  0
    3.9741    6.8019   -5.5580 N   0  0  0  0  0  0  0  0  0  0  0  0
  1  2  1  1
  2  3  2  0
  3  4  1  0
  4  5  1  1
  5  6  1  0
  6  7  2  0
  6  8  1  0
  8  9  2  0
  9 10  1  0
 10 11  1  0
 10 12  2  0
 12 13  1  0
 12 14  1  0
 14 15  2  0
 15 16  1  0
  3 17  1  0
 17 18  1  0
 18 19  1  0
 19 20  2  0
 20 21  1  0
 20 22  1  0
 22 23  2  0
 23 24  1  0
 24  2  1  0
 15  8  1  0
 23 18  1  0
M  END
$$$$
